
---------- Begin Simulation Statistics ----------
simSeconds                                   0.000110                       # Number of seconds simulated (Second)
simTicks                                    109877000                       # Number of ticks simulated (Tick)
finalTick                                   109877000                       # Number of ticks from beginning of simulation (restored from checkpoints and never reset) (Tick)
simFreq                                  1000000000000                       # The number of ticks per simulated second ((Tick/Second))
hostSeconds                                      0.10                       # Real time elapsed on the host (Second)
hostTickRate                               1083689892                       # The number of ticks simulated per host second (ticks/s) ((Tick/Second))
hostMemory                                    1182468                       # Number of bytes of host memory used (Byte)
simInsts                                        10873                       # Number of instructions simulated (Count)
simOps                                          20506                       # Number of ops (including micro ops) simulated (Count)
hostInstRate                                   107177                       # Simulator instruction rate (inst/s) ((Count/Second))
hostOpRate                                     202126                       # Simulator op (including micro ops) rate (op/s) ((Count/Second))
board.cache_hierarchy.membus.transDist::ReadReq         5702                       # Transaction distribution (Count)
board.cache_hierarchy.membus.transDist::ReadResp         5701                       # Transaction distribution (Count)
board.cache_hierarchy.membus.transDist::WriteReq         1989                       # Transaction distribution (Count)
board.cache_hierarchy.membus.transDist::WriteResp         1989                       # Transaction distribution (Count)
board.cache_hierarchy.membus.transDist::LockedRMWReadReq            4                       # Transaction distribution (Count)
board.cache_hierarchy.membus.transDist::LockedRMWReadResp            4                       # Transaction distribution (Count)
board.cache_hierarchy.membus.transDist::LockedRMWWriteReq            4                       # Transaction distribution (Count)
board.cache_hierarchy.membus.transDist::LockedRMWWriteResp            4                       # Transaction distribution (Count)
board.cache_hierarchy.membus.pktCount_board.processor.cores0.core.icache_port::board.memory.mem_ctrl.port         5161                       # Packet count per connected requestor and responder (Count)
board.cache_hierarchy.membus.pktCount_board.processor.cores0.core.icache_port::total         5161                       # Packet count per connected requestor and responder (Count)
board.cache_hierarchy.membus.pktCount_board.processor.cores0.core.dcache_port::board.memory.mem_ctrl.port        10236                       # Packet count per connected requestor and responder (Count)
board.cache_hierarchy.membus.pktCount_board.processor.cores0.core.dcache_port::total        10236                       # Packet count per connected requestor and responder (Count)
board.cache_hierarchy.membus.pktCount::total        15397                       # Packet count per connected requestor and responder (Count)
board.cache_hierarchy.membus.pktSize_board.processor.cores0.core.icache_port::board.memory.mem_ctrl.port       165120                       # Cumulative packet size per connected requestor and responder (Byte)
board.cache_hierarchy.membus.pktSize_board.processor.cores0.core.icache_port::total       165120                       # Cumulative packet size per connected requestor and responder (Byte)
board.cache_hierarchy.membus.pktSize_board.processor.cores0.core.dcache_port::board.memory.mem_ctrl.port        34826                       # Cumulative packet size per connected requestor and responder (Byte)
board.cache_hierarchy.membus.pktSize_board.processor.cores0.core.dcache_port::total        34826                       # Cumulative packet size per connected requestor and responder (Byte)
board.cache_hierarchy.membus.pktSize::total       199946                       # Cumulative packet size per connected requestor and responder (Byte)
board.cache_hierarchy.membus.snoops                 0                       # Total snoops (Count)
board.cache_hierarchy.membus.snoopTraffic            0                       # Total snoop traffic (Byte)
board.cache_hierarchy.membus.snoopFanout::samples         7699                       # Request fanout histogram (Count)
board.cache_hierarchy.membus.snoopFanout::mean            0                       # Request fanout histogram (Count)
board.cache_hierarchy.membus.snoopFanout::stdev            0                       # Request fanout histogram (Count)
board.cache_hierarchy.membus.snoopFanout::underflows            0      0.00%      0.00% # Request fanout histogram (Count)
board.cache_hierarchy.membus.snoopFanout::0         7699    100.00%    100.00% # Request fanout histogram (Count)
board.cache_hierarchy.membus.snoopFanout::1            0      0.00%    100.00% # Request fanout histogram (Count)
board.cache_hierarchy.membus.snoopFanout::2            0      0.00%    100.00% # Request fanout histogram (Count)
board.cache_hierarchy.membus.snoopFanout::overflows            0      0.00%    100.00% # Request fanout histogram (Count)
board.cache_hierarchy.membus.snoopFanout::min_value            0                       # Request fanout histogram (Count)
board.cache_hierarchy.membus.snoopFanout::max_value            0                       # Request fanout histogram (Count)
board.cache_hierarchy.membus.snoopFanout::total         7699                       # Request fanout histogram (Count)
board.cache_hierarchy.membus.badaddr_responder.power_state.pwrStateResidencyTicks::UNDEFINED    109877000                       # Cumulative time (in ticks) in various power states (Tick)
board.cache_hierarchy.membus.power_state.pwrStateResidencyTicks::UNDEFINED    109877000                       # Cumulative time (in ticks) in various power states (Tick)
board.cache_hierarchy.membus.reqLayer4.occupancy      1938400                       # Layer occupancy (ticks) (Tick)
board.cache_hierarchy.membus.reqLayer4.utilization          0.0                       # Layer utilization (Ratio)
board.cache_hierarchy.membus.respLayer0.occupancy      1187050                       # Layer occupancy (ticks) (Tick)
board.cache_hierarchy.membus.respLayer0.utilization          0.0                       # Layer utilization (Ratio)
board.cache_hierarchy.membus.respLayer1.occupancy      1857150                       # Layer occupancy (ticks) (Tick)
board.cache_hierarchy.membus.respLayer1.utilization          0.0                       # Layer utilization (Ratio)
board.cache_hierarchy.membus.snoop_filter.totRequests            0                       # Total number of requests made to the snoop filter. (Count)
board.cache_hierarchy.membus.snoop_filter.hitSingleRequests            0                       # Number of requests hitting in the snoop filter with a single holder of the requested data. (Count)
board.cache_hierarchy.membus.snoop_filter.hitMultiRequests            0                       # Number of requests hitting in the snoop filter with multiple (>1) holders of the requested data. (Count)
board.cache_hierarchy.membus.snoop_filter.totSnoops            0                       # Total number of snoops made to the snoop filter. (Count)
board.cache_hierarchy.membus.snoop_filter.hitSingleSnoops            0                       # Number of snoops hitting in the snoop filter with a single holder of the requested data. (Count)
board.cache_hierarchy.membus.snoop_filter.hitMultiSnoops            0                       # Number of snoops hitting in the snoop filter with multiple (>1) holders of the requested data. (Count)
board.clk_domain.clock                            200                       # Clock period in ticks (Tick)
board.clk_domain.voltage_domain.voltage             1                       # Voltage in Volts (Volt)
board.memory.mem_ctrl.avgPriority_processor.cores0.core.inst::samples      2581.00                       # Average QoS priority value for accepted requests (Count)
board.memory.mem_ctrl.avgPriority_processor.cores0.core.data::samples      2948.00                       # Average QoS priority value for accepted requests (Count)
board.memory.mem_ctrl.priorityMinLatency 0.000000018750                       # per QoS priority minimum request to response latency (Second)
board.memory.mem_ctrl.priorityMaxLatency 0.000073010000                       # per QoS priority maximum request to response latency (Second)
board.memory.mem_ctrl.numReadWriteTurnArounds           13                       # Number of turnarounds from READ to WRITE (Count)
board.memory.mem_ctrl.numWriteReadTurnArounds           13                       # Number of turnarounds from WRITE to READ (Count)
board.memory.mem_ctrl.numStayReadState          11480                       # Number of times bus staying in READ state (Count)
board.memory.mem_ctrl.numStayWriteState           199                       # Number of times bus staying in WRITE state (Count)
board.memory.mem_ctrl.readReqs                   5706                       # Number of read requests accepted (Count)
board.memory.mem_ctrl.writeReqs                  1993                       # Number of write requests accepted (Count)
board.memory.mem_ctrl.readBursts                 5706                       # Number of controller read bursts, including those serviced by the write queue (Count)
board.memory.mem_ctrl.writeBursts                1993                       # Number of controller write bursts, including those merged in the write queue (Count)
board.memory.mem_ctrl.servicedByWrQ               417                       # Number of controller read bursts serviced by the write queue (Count)
board.memory.mem_ctrl.mergedWrBursts             1753                       # Number of controller write bursts merged with an existing one (Count)
board.memory.mem_ctrl.neitherReadNorWriteReqs            0                       # Number of requests that are neither read nor write (Count)
board.memory.mem_ctrl.avgRdQLen                  3.20                       # Average read queue length when enqueuing ((Count/Tick))
board.memory.mem_ctrl.avgWrQLen                 25.30                       # Average write queue length when enqueuing ((Count/Tick))
board.memory.mem_ctrl.numRdRetry                    0                       # Number of times read queue was full causing retry (Count)
board.memory.mem_ctrl.numWrRetry                    0                       # Number of times write queue was full causing retry (Count)
board.memory.mem_ctrl.readPktSize::0              272                       # Read request sizes (log2) (Count)
board.memory.mem_ctrl.readPktSize::1               90                       # Read request sizes (log2) (Count)
board.memory.mem_ctrl.readPktSize::2              617                       # Read request sizes (log2) (Count)
board.memory.mem_ctrl.readPktSize::3             2146                       # Read request sizes (log2) (Count)
board.memory.mem_ctrl.readPktSize::4                0                       # Read request sizes (log2) (Count)
board.memory.mem_ctrl.readPktSize::5                0                       # Read request sizes (log2) (Count)
board.memory.mem_ctrl.readPktSize::6             2581                       # Read request sizes (log2) (Count)
board.memory.mem_ctrl.writePktSize::0              28                       # Write request sizes (log2) (Count)
board.memory.mem_ctrl.writePktSize::1              13                       # Write request sizes (log2) (Count)
board.memory.mem_ctrl.writePktSize::2             232                       # Write request sizes (log2) (Count)
board.memory.mem_ctrl.writePktSize::3            1720                       # Write request sizes (log2) (Count)
board.memory.mem_ctrl.writePktSize::4               0                       # Write request sizes (log2) (Count)
board.memory.mem_ctrl.writePktSize::5               0                       # Write request sizes (log2) (Count)
board.memory.mem_ctrl.writePktSize::6               0                       # Write request sizes (log2) (Count)
board.memory.mem_ctrl.rdQLenPdf::0               1809                       # What read queue length does an incoming req see (Count)
board.memory.mem_ctrl.rdQLenPdf::1               1356                       # What read queue length does an incoming req see (Count)
board.memory.mem_ctrl.rdQLenPdf::2                781                       # What read queue length does an incoming req see (Count)
board.memory.mem_ctrl.rdQLenPdf::3                423                       # What read queue length does an incoming req see (Count)
board.memory.mem_ctrl.rdQLenPdf::4                268                       # What read queue length does an incoming req see (Count)
board.memory.mem_ctrl.rdQLenPdf::5                155                       # What read queue length does an incoming req see (Count)
board.memory.mem_ctrl.rdQLenPdf::6                112                       # What read queue length does an incoming req see (Count)
board.memory.mem_ctrl.rdQLenPdf::7                 75                       # What read queue length does an incoming req see (Count)
board.memory.mem_ctrl.rdQLenPdf::8                 66                       # What read queue length does an incoming req see (Count)
board.memory.mem_ctrl.rdQLenPdf::9                 44                       # What read queue length does an incoming req see (Count)
board.memory.mem_ctrl.rdQLenPdf::10                37                       # What read queue length does an incoming req see (Count)
board.memory.mem_ctrl.rdQLenPdf::11                29                       # What read queue length does an incoming req see (Count)
board.memory.mem_ctrl.rdQLenPdf::12                20                       # What read queue length does an incoming req see (Count)
board.memory.mem_ctrl.rdQLenPdf::13                13                       # What read queue length does an incoming req see (Count)
board.memory.mem_ctrl.rdQLenPdf::14                14                       # What read queue length does an incoming req see (Count)
board.memory.mem_ctrl.rdQLenPdf::15                 9                       # What read queue length does an incoming req see (Count)
board.memory.mem_ctrl.rdQLenPdf::16                 7                       # What read queue length does an incoming req see (Count)
board.memory.mem_ctrl.rdQLenPdf::17                 7                       # What read queue length does an incoming req see (Count)
board.memory.mem_ctrl.rdQLenPdf::18                 7                       # What read queue length does an incoming req see (Count)
board.memory.mem_ctrl.rdQLenPdf::19                 6                       # What read queue length does an incoming req see (Count)
board.memory.mem_ctrl.rdQLenPdf::20                 8                       # What read queue length does an incoming req see (Count)
board.memory.mem_ctrl.rdQLenPdf::21                 8                       # What read queue length does an incoming req see (Count)
board.memory.mem_ctrl.rdQLenPdf::22                 6                       # What read queue length does an incoming req see (Count)
board.memory.mem_ctrl.rdQLenPdf::23                 7                       # What read queue length does an incoming req see (Count)
board.memory.mem_ctrl.rdQLenPdf::24                 6                       # What read queue length does an incoming req see (Count)
board.memory.mem_ctrl.rdQLenPdf::25                 6                       # What read queue length does an incoming req see (Count)
board.memory.mem_ctrl.rdQLenPdf::26                 6                       # What read queue length does an incoming req see (Count)
board.memory.mem_ctrl.rdQLenPdf::27                 4                       # What read queue length does an incoming req see (Count)
board.memory.mem_ctrl.rdQLenPdf::28                 0                       # What read queue length does an incoming req see (Count)
board.memory.mem_ctrl.rdQLenPdf::29                 0                       # What read queue length does an incoming req see (Count)
board.memory.mem_ctrl.rdQLenPdf::30                 0                       # What read queue length does an incoming req see (Count)
board.memory.mem_ctrl.rdQLenPdf::31                 0                       # What read queue length does an incoming req see (Count)
board.memory.mem_ctrl.wrQLenPdf::0                  1                       # What write queue length does an incoming req see (Count)
board.memory.mem_ctrl.wrQLenPdf::1                  1                       # What write queue length does an incoming req see (Count)
board.memory.mem_ctrl.wrQLenPdf::2                  1                       # What write queue length does an incoming req see (Count)
board.memory.mem_ctrl.wrQLenPdf::3                  1                       # What write queue length does an incoming req see (Count)
board.memory.mem_ctrl.wrQLenPdf::4                  1                       # What write queue length does an incoming req see (Count)
board.memory.mem_ctrl.wrQLenPdf::5                  1                       # What write queue length does an incoming req see (Count)
board.memory.mem_ctrl.wrQLenPdf::6                  1                       # What write queue length does an incoming req see (Count)
board.memory.mem_ctrl.wrQLenPdf::7                  1                       # What write queue length does an incoming req see (Count)
board.memory.mem_ctrl.wrQLenPdf::8                  1                       # What write queue length does an incoming req see (Count)
board.memory.mem_ctrl.wrQLenPdf::9                  1                       # What write queue length does an incoming req see (Count)
board.memory.mem_ctrl.wrQLenPdf::10                 1                       # What write queue length does an incoming req see (Count)
board.memory.mem_ctrl.wrQLenPdf::11                 1                       # What write queue length does an incoming req see (Count)
board.memory.mem_ctrl.wrQLenPdf::12                 1                       # What write queue length does an incoming req see (Count)
board.memory.mem_ctrl.wrQLenPdf::13                 1                       # What write queue length does an incoming req see (Count)
board.memory.mem_ctrl.wrQLenPdf::14                 1                       # What write queue length does an incoming req see (Count)
board.memory.mem_ctrl.wrQLenPdf::15                 3                       # What write queue length does an incoming req see (Count)
board.memory.mem_ctrl.wrQLenPdf::16                 3                       # What write queue length does an incoming req see (Count)
board.memory.mem_ctrl.wrQLenPdf::17                 9                       # What write queue length does an incoming req see (Count)
board.memory.mem_ctrl.wrQLenPdf::18                12                       # What write queue length does an incoming req see (Count)
board.memory.mem_ctrl.wrQLenPdf::19                14                       # What write queue length does an incoming req see (Count)
board.memory.mem_ctrl.wrQLenPdf::20                14                       # What write queue length does an incoming req see (Count)
board.memory.mem_ctrl.wrQLenPdf::21                16                       # What write queue length does an incoming req see (Count)
board.memory.mem_ctrl.wrQLenPdf::22                14                       # What write queue length does an incoming req see (Count)
board.memory.mem_ctrl.wrQLenPdf::23                14                       # What write queue length does an incoming req see (Count)
board.memory.mem_ctrl.wrQLenPdf::24                15                       # What write queue length does an incoming req see (Count)
board.memory.mem_ctrl.wrQLenPdf::25                15                       # What write queue length does an incoming req see (Count)
board.memory.mem_ctrl.wrQLenPdf::26                15                       # What write queue length does an incoming req see (Count)
board.memory.mem_ctrl.wrQLenPdf::27                14                       # What write queue length does an incoming req see (Count)
board.memory.mem_ctrl.wrQLenPdf::28                13                       # What write queue length does an incoming req see (Count)
board.memory.mem_ctrl.wrQLenPdf::29                13                       # What write queue length does an incoming req see (Count)
board.memory.mem_ctrl.wrQLenPdf::30                13                       # What write queue length does an incoming req see (Count)
board.memory.mem_ctrl.wrQLenPdf::31                14                       # What write queue length does an incoming req see (Count)
board.memory.mem_ctrl.wrQLenPdf::32                13                       # What write queue length does an incoming req see (Count)
board.memory.mem_ctrl.wrQLenPdf::33                 1                       # What write queue length does an incoming req see (Count)
board.memory.mem_ctrl.wrQLenPdf::34                 0                       # What write queue length does an incoming req see (Count)
board.memory.mem_ctrl.wrQLenPdf::35                 0                       # What write queue length does an incoming req see (Count)
board.memory.mem_ctrl.wrQLenPdf::36                 0                       # What write queue length does an incoming req see (Count)
board.memory.mem_ctrl.wrQLenPdf::37                 0                       # What write queue length does an incoming req see (Count)
board.memory.mem_ctrl.wrQLenPdf::38                 0                       # What write queue length does an incoming req see (Count)
board.memory.mem_ctrl.wrQLenPdf::39                 0                       # What write queue length does an incoming req see (Count)
board.memory.mem_ctrl.wrQLenPdf::40                 0                       # What write queue length does an incoming req see (Count)
board.memory.mem_ctrl.wrQLenPdf::41                 0                       # What write queue length does an incoming req see (Count)
board.memory.mem_ctrl.wrQLenPdf::42                 0                       # What write queue length does an incoming req see (Count)
board.memory.mem_ctrl.wrQLenPdf::43                 0                       # What write queue length does an incoming req see (Count)
board.memory.mem_ctrl.wrQLenPdf::44                 0                       # What write queue length does an incoming req see (Count)
board.memory.mem_ctrl.wrQLenPdf::45                 0                       # What write queue length does an incoming req see (Count)
board.memory.mem_ctrl.wrQLenPdf::46                 0                       # What write queue length does an incoming req see (Count)
board.memory.mem_ctrl.wrQLenPdf::47                 0                       # What write queue length does an incoming req see (Count)
board.memory.mem_ctrl.wrQLenPdf::48                 0                       # What write queue length does an incoming req see (Count)
board.memory.mem_ctrl.wrQLenPdf::49                 0                       # What write queue length does an incoming req see (Count)
board.memory.mem_ctrl.wrQLenPdf::50                 0                       # What write queue length does an incoming req see (Count)
board.memory.mem_ctrl.wrQLenPdf::51                 0                       # What write queue length does an incoming req see (Count)
board.memory.mem_ctrl.wrQLenPdf::52                 0                       # What write queue length does an incoming req see (Count)
board.memory.mem_ctrl.wrQLenPdf::53                 0                       # What write queue length does an incoming req see (Count)
board.memory.mem_ctrl.wrQLenPdf::54                 0                       # What write queue length does an incoming req see (Count)
board.memory.mem_ctrl.wrQLenPdf::55                 0                       # What write queue length does an incoming req see (Count)
board.memory.mem_ctrl.wrQLenPdf::56                 0                       # What write queue length does an incoming req see (Count)
board.memory.mem_ctrl.wrQLenPdf::57                 0                       # What write queue length does an incoming req see (Count)
board.memory.mem_ctrl.wrQLenPdf::58                 0                       # What write queue length does an incoming req see (Count)
board.memory.mem_ctrl.wrQLenPdf::59                 0                       # What write queue length does an incoming req see (Count)
board.memory.mem_ctrl.wrQLenPdf::60                 0                       # What write queue length does an incoming req see (Count)
board.memory.mem_ctrl.wrQLenPdf::61                 0                       # What write queue length does an incoming req see (Count)
board.memory.mem_ctrl.wrQLenPdf::62                 0                       # What write queue length does an incoming req see (Count)
board.memory.mem_ctrl.wrQLenPdf::63                 0                       # What write queue length does an incoming req see (Count)
board.memory.mem_ctrl.rdPerTurnAround::samples           13                       # Reads before turning the bus around for writes (Count)
board.memory.mem_ctrl.rdPerTurnAround::mean   362.153846                       # Reads before turning the bus around for writes (Count)
board.memory.mem_ctrl.rdPerTurnAround::stdev   275.042071                       # Reads before turning the bus around for writes (Count)
board.memory.mem_ctrl.rdPerTurnAround::0-31            1      7.69%      7.69% # Reads before turning the bus around for writes (Count)
board.memory.mem_ctrl.rdPerTurnAround::64-95            1      7.69%     15.38% # Reads before turning the bus around for writes (Count)
board.memory.mem_ctrl.rdPerTurnAround::96-127            1      7.69%     23.08% # Reads before turning the bus around for writes (Count)
board.memory.mem_ctrl.rdPerTurnAround::160-191            2     15.38%     38.46% # Reads before turning the bus around for writes (Count)
board.memory.mem_ctrl.rdPerTurnAround::192-223            1      7.69%     46.15% # Reads before turning the bus around for writes (Count)
board.memory.mem_ctrl.rdPerTurnAround::224-255            1      7.69%     53.85% # Reads before turning the bus around for writes (Count)
board.memory.mem_ctrl.rdPerTurnAround::384-415            1      7.69%     61.54% # Reads before turning the bus around for writes (Count)
board.memory.mem_ctrl.rdPerTurnAround::480-511            1      7.69%     69.23% # Reads before turning the bus around for writes (Count)
board.memory.mem_ctrl.rdPerTurnAround::512-543            1      7.69%     76.92% # Reads before turning the bus around for writes (Count)
board.memory.mem_ctrl.rdPerTurnAround::736-767            2     15.38%     92.31% # Reads before turning the bus around for writes (Count)
board.memory.mem_ctrl.rdPerTurnAround::768-799            1      7.69%    100.00% # Reads before turning the bus around for writes (Count)
board.memory.mem_ctrl.rdPerTurnAround::total           13                       # Reads before turning the bus around for writes (Count)
board.memory.mem_ctrl.wrPerTurnAround::samples           13                       # Writes before turning the bus around for reads (Count)
board.memory.mem_ctrl.wrPerTurnAround::mean    16.307692                       # Writes before turning the bus around for reads (Count)
board.memory.mem_ctrl.wrPerTurnAround::gmean    16.292570                       # Writes before turning the bus around for reads (Count)
board.memory.mem_ctrl.wrPerTurnAround::stdev     0.751068                       # Writes before turning the bus around for reads (Count)
board.memory.mem_ctrl.wrPerTurnAround::16           11     84.62%     84.62% # Writes before turning the bus around for reads (Count)
board.memory.mem_ctrl.wrPerTurnAround::18            2     15.38%    100.00% # Writes before turning the bus around for reads (Count)
board.memory.mem_ctrl.wrPerTurnAround::total           13                       # Writes before turning the bus around for reads (Count)
board.memory.mem_ctrl.bytesReadWrQ              26688                       # Total number of bytes read from write queue (Byte)
board.memory.mem_ctrl.bytesReadSys             185268                       # Total read bytes from the system interface side (Byte)
board.memory.mem_ctrl.bytesWrittenSys           14742                       # Total written bytes from the system interface side (Byte)
board.memory.mem_ctrl.avgRdBWSys         1686139956.49680996                       # Average system read bandwidth in Byte/s ((Byte/Second))
board.memory.mem_ctrl.avgWrBWSys         134168206.26700765                       # Average system write bandwidth in Byte/s ((Byte/Second))
board.memory.mem_ctrl.totGap                109863800                       # Total gap between requests (Tick)
board.memory.mem_ctrl.avgGap                 14269.88                       # Average gap between requests ((Tick/Count))
board.memory.mem_ctrl.requestorReadBytes::processor.cores0.core.inst       165184                       # Per-requestor bytes read from memory (Byte)
board.memory.mem_ctrl.requestorReadBytes::processor.cores0.core.data        17052                       # Per-requestor bytes read from memory (Byte)
board.memory.mem_ctrl.requestorWriteBytes::processor.cores0.core.data         1562                       # Per-requestor bytes write to memory (Byte)
board.memory.mem_ctrl.requestorReadRate::processor.cores0.core.inst 1503353750.102387189865                       # Per-requestor bytes read from memory rate ((Byte/Second))
board.memory.mem_ctrl.requestorReadRate::processor.cores0.core.data 155191714.371524512768                       # Per-requestor bytes read from memory rate ((Byte/Second))
board.memory.mem_ctrl.requestorWriteRate::processor.cores0.core.data 14215895.956387596205                       # Per-requestor bytes write to memory rate ((Byte/Second))
board.memory.mem_ctrl.requestorReadAccesses::processor.cores0.core.inst         2581                       # Per-requestor read serviced memory accesses (Count)
board.memory.mem_ctrl.requestorReadAccesses::processor.cores0.core.data         3125                       # Per-requestor read serviced memory accesses (Count)
board.memory.mem_ctrl.requestorWriteAccesses::processor.cores0.core.data         1993                       # Per-requestor write serviced memory accesses (Count)
board.memory.mem_ctrl.requestorReadTotalLat::processor.cores0.core.inst     72990500                       # Per-requestor read total memory access latency (Tick)
board.memory.mem_ctrl.requestorReadTotalLat::processor.cores0.core.data    127659800                       # Per-requestor read total memory access latency (Tick)
board.memory.mem_ctrl.requestorWriteTotalLat::processor.cores0.core.data   2378185100                       # Per-requestor write total memory access latency (Tick)
board.memory.mem_ctrl.requestorReadAvgLat::processor.cores0.core.inst     28279.93                       # Per-requestor read average memory access latency ((Tick/Count))
board.memory.mem_ctrl.requestorReadAvgLat::processor.cores0.core.data     40851.14                       # Per-requestor read average memory access latency ((Tick/Count))
board.memory.mem_ctrl.requestorWriteAvgLat::processor.cores0.core.data   1193268.99                       # Per-requestor write average memory access latency ((Tick/Count))
board.memory.mem_ctrl.dram.bytesRead::processor.cores0.core.inst       165184                       # Number of bytes read from this memory (Byte)
board.memory.mem_ctrl.dram.bytesRead::processor.cores0.core.data        20084                       # Number of bytes read from this memory (Byte)
board.memory.mem_ctrl.dram.bytesRead::total       185268                       # Number of bytes read from this memory (Byte)
board.memory.mem_ctrl.dram.bytesInstRead::processor.cores0.core.inst       165184                       # Number of instructions bytes read from this memory (Byte)
board.memory.mem_ctrl.dram.bytesInstRead::total       165184                       # Number of instructions bytes read from this memory (Byte)
board.memory.mem_ctrl.dram.bytesWritten::processor.cores0.core.data        14742                       # Number of bytes written to this memory (Byte)
board.memory.mem_ctrl.dram.bytesWritten::total        14742                       # Number of bytes written to this memory (Byte)
board.memory.mem_ctrl.dram.numReads::processor.cores0.core.inst         2581                       # Number of read requests responded to by this memory (Count)
board.memory.mem_ctrl.dram.numReads::processor.cores0.core.data         3125                       # Number of read requests responded to by this memory (Count)
board.memory.mem_ctrl.dram.numReads::total         5706                       # Number of read requests responded to by this memory (Count)
board.memory.mem_ctrl.dram.numWrites::processor.cores0.core.data         1993                       # Number of write requests responded to by this memory (Count)
board.memory.mem_ctrl.dram.numWrites::total         1993                       # Number of write requests responded to by this memory (Count)
board.memory.mem_ctrl.dram.bwRead::processor.cores0.core.inst   1503353750                       # Total read bandwidth from this memory ((Byte/Second))
board.memory.mem_ctrl.dram.bwRead::processor.cores0.core.data    182786206                       # Total read bandwidth from this memory ((Byte/Second))
board.memory.mem_ctrl.dram.bwRead::total   1686139956                       # Total read bandwidth from this memory ((Byte/Second))
board.memory.mem_ctrl.dram.bwInstRead::processor.cores0.core.inst   1503353750                       # Instruction read bandwidth from this memory ((Byte/Second))
board.memory.mem_ctrl.dram.bwInstRead::total   1503353750                       # Instruction read bandwidth from this memory ((Byte/Second))
board.memory.mem_ctrl.dram.bwWrite::processor.cores0.core.data    134168206                       # Write bandwidth from this memory ((Byte/Second))
board.memory.mem_ctrl.dram.bwWrite::total    134168206                       # Write bandwidth from this memory ((Byte/Second))
board.memory.mem_ctrl.dram.bwTotal::processor.cores0.core.inst   1503353750                       # Total bandwidth to/from this memory ((Byte/Second))
board.memory.mem_ctrl.dram.bwTotal::processor.cores0.core.data    316954413                       # Total bandwidth to/from this memory ((Byte/Second))
board.memory.mem_ctrl.dram.bwTotal::total   1820308163                       # Total bandwidth to/from this memory ((Byte/Second))
board.memory.mem_ctrl.dram.readBursts            5289                       # Number of DRAM read bursts (Count)
board.memory.mem_ctrl.dram.writeBursts            212                       # Number of DRAM write bursts (Count)
board.memory.mem_ctrl.dram.perBankRdBursts::0          687                       # Per bank write bursts (Count)
board.memory.mem_ctrl.dram.perBankRdBursts::1          286                       # Per bank write bursts (Count)
board.memory.mem_ctrl.dram.perBankRdBursts::2          310                       # Per bank write bursts (Count)
board.memory.mem_ctrl.dram.perBankRdBursts::3          348                       # Per bank write bursts (Count)
board.memory.mem_ctrl.dram.perBankRdBursts::4          129                       # Per bank write bursts (Count)
board.memory.mem_ctrl.dram.perBankRdBursts::5          514                       # Per bank write bursts (Count)
board.memory.mem_ctrl.dram.perBankRdBursts::6         1406                       # Per bank write bursts (Count)
board.memory.mem_ctrl.dram.perBankRdBursts::7          169                       # Per bank write bursts (Count)
board.memory.mem_ctrl.dram.perBankRdBursts::8          301                       # Per bank write bursts (Count)
board.memory.mem_ctrl.dram.perBankRdBursts::9            2                       # Per bank write bursts (Count)
board.memory.mem_ctrl.dram.perBankRdBursts::10            8                       # Per bank write bursts (Count)
board.memory.mem_ctrl.dram.perBankRdBursts::11          100                       # Per bank write bursts (Count)
board.memory.mem_ctrl.dram.perBankRdBursts::12          725                       # Per bank write bursts (Count)
board.memory.mem_ctrl.dram.perBankRdBursts::13           99                       # Per bank write bursts (Count)
board.memory.mem_ctrl.dram.perBankRdBursts::14          205                       # Per bank write bursts (Count)
board.memory.mem_ctrl.dram.perBankRdBursts::15            0                       # Per bank write bursts (Count)
board.memory.mem_ctrl.dram.perBankWrBursts::0            0                       # Per bank write bursts (Count)
board.memory.mem_ctrl.dram.perBankWrBursts::1            4                       # Per bank write bursts (Count)
board.memory.mem_ctrl.dram.perBankWrBursts::2           55                       # Per bank write bursts (Count)
board.memory.mem_ctrl.dram.perBankWrBursts::3           21                       # Per bank write bursts (Count)
board.memory.mem_ctrl.dram.perBankWrBursts::4            0                       # Per bank write bursts (Count)
board.memory.mem_ctrl.dram.perBankWrBursts::5            0                       # Per bank write bursts (Count)
board.memory.mem_ctrl.dram.perBankWrBursts::6           66                       # Per bank write bursts (Count)
board.memory.mem_ctrl.dram.perBankWrBursts::7           20                       # Per bank write bursts (Count)
board.memory.mem_ctrl.dram.perBankWrBursts::8           46                       # Per bank write bursts (Count)
board.memory.mem_ctrl.dram.perBankWrBursts::9            0                       # Per bank write bursts (Count)
board.memory.mem_ctrl.dram.perBankWrBursts::10            0                       # Per bank write bursts (Count)
board.memory.mem_ctrl.dram.perBankWrBursts::11            0                       # Per bank write bursts (Count)
board.memory.mem_ctrl.dram.perBankWrBursts::12            0                       # Per bank write bursts (Count)
board.memory.mem_ctrl.dram.perBankWrBursts::13            0                       # Per bank write bursts (Count)
board.memory.mem_ctrl.dram.perBankWrBursts::14            0                       # Per bank write bursts (Count)
board.memory.mem_ctrl.dram.perBankWrBursts::15            0                       # Per bank write bursts (Count)
board.memory.mem_ctrl.dram.totQLat          101481550                       # Total ticks spent queuing (Tick)
board.memory.mem_ctrl.dram.totBusLat         26445000                       # Total ticks spent in databus transfers (Tick)
board.memory.mem_ctrl.dram.totMemAccLat     200650300                       # Total ticks spent from burst creation until serviced by the DRAM (Tick)
board.memory.mem_ctrl.dram.avgQLat           19187.28                       # Average queueing delay per DRAM burst ((Tick/Count))
board.memory.mem_ctrl.dram.avgBusLat          5000.00                       # Average bus latency per DRAM burst ((Tick/Count))
board.memory.mem_ctrl.dram.avgMemAccLat      37937.28                       # Average memory access latency per DRAM burst ((Tick/Count))
board.memory.mem_ctrl.dram.readRowHits           4590                       # Number of row buffer hits during reads (Count)
board.memory.mem_ctrl.dram.writeRowHits           203                       # Number of row buffer hits during writes (Count)
board.memory.mem_ctrl.dram.readRowHitRate        86.78                       # Row buffer hit rate for reads (Ratio)
board.memory.mem_ctrl.dram.writeRowHitRate        95.75                       # Row buffer hit rate for writes (Ratio)
board.memory.mem_ctrl.dram.bytesPerActivate::samples          702                       # Bytes accessed per row activation (Byte)
board.memory.mem_ctrl.dram.bytesPerActivate::mean   498.324786                       # Bytes accessed per row activation (Byte)
board.memory.mem_ctrl.dram.bytesPerActivate::gmean   314.347418                       # Bytes accessed per row activation (Byte)
board.memory.mem_ctrl.dram.bytesPerActivate::stdev   399.745279                       # Bytes accessed per row activation (Byte)
board.memory.mem_ctrl.dram.bytesPerActivate::0-127          129     18.38%     18.38% # Bytes accessed per row activation (Byte)
board.memory.mem_ctrl.dram.bytesPerActivate::128-255          166     23.65%     42.02% # Bytes accessed per row activation (Byte)
board.memory.mem_ctrl.dram.bytesPerActivate::256-383           59      8.40%     50.43% # Bytes accessed per row activation (Byte)
board.memory.mem_ctrl.dram.bytesPerActivate::384-511           51      7.26%     57.69% # Bytes accessed per row activation (Byte)
board.memory.mem_ctrl.dram.bytesPerActivate::512-639           28      3.99%     61.68% # Bytes accessed per row activation (Byte)
board.memory.mem_ctrl.dram.bytesPerActivate::640-767           21      2.99%     64.67% # Bytes accessed per row activation (Byte)
board.memory.mem_ctrl.dram.bytesPerActivate::768-895           15      2.14%     66.81% # Bytes accessed per row activation (Byte)
board.memory.mem_ctrl.dram.bytesPerActivate::896-1023           19      2.71%     69.52% # Bytes accessed per row activation (Byte)
board.memory.mem_ctrl.dram.bytesPerActivate::1024-1151          214     30.48%    100.00% # Bytes accessed per row activation (Byte)
board.memory.mem_ctrl.dram.bytesPerActivate::total          702                       # Bytes accessed per row activation (Byte)
board.memory.mem_ctrl.dram.bytesRead           338496                       # Total bytes read (Byte)
board.memory.mem_ctrl.dram.bytesWritten         13568                       # Total bytes written (Byte)
board.memory.mem_ctrl.dram.avgRdBW        3080.681125                       # Average DRAM read bandwidth in MiBytes/s ((Byte/Second))
board.memory.mem_ctrl.dram.avgWrBW         123.483532                       # Average DRAM write bandwidth in MiBytes/s ((Byte/Second))
board.memory.mem_ctrl.dram.peakBW            12800.00                       # Theoretical peak bandwidth in MiByte/s ((Byte/Second))
board.memory.mem_ctrl.dram.busUtil              25.03                       # Data bus utilization in percentage (Ratio)
board.memory.mem_ctrl.dram.busUtilRead          24.07                       # Data bus utilization in percentage for reads (Ratio)
board.memory.mem_ctrl.dram.busUtilWrite          0.96                       # Data bus utilization in percentage for writes (Ratio)
board.memory.mem_ctrl.dram.pageHitRate          87.13                       # Row buffer hit rate, read and write combined (Ratio)
board.memory.mem_ctrl.dram.power_state.pwrStateResidencyTicks::UNDEFINED    109877000                       # Cumulative time (in ticks) in various power states (Tick)
board.memory.mem_ctrl.dram.rank0.actEnergy      4019820                       # Energy for activate commands per rank (pJ) (Joule)
board.memory.mem_ctrl.dram.rank0.preEnergy      2117610                       # Energy for precharge commands per rank (pJ) (Joule)
board.memory.mem_ctrl.dram.rank0.readEnergy     27481860                       # Energy for read commands per rank (pJ) (Joule)
board.memory.mem_ctrl.dram.rank0.writeEnergy       866520                       # Energy for write commands per rank (pJ) (Joule)
board.memory.mem_ctrl.dram.rank0.refreshEnergy 8604960.000000                       # Energy for refresh commands per rank (pJ) (Joule)
board.memory.mem_ctrl.dram.rank0.actBackEnergy     49216650                       # Energy for active background per rank (pJ) (Joule)
board.memory.mem_ctrl.dram.rank0.preBackEnergy       747360                       # Energy for precharge background per rank (pJ) (Joule)
board.memory.mem_ctrl.dram.rank0.actPowerDownEnergy            0                       # Energy for active power-down per rank (pJ) (Joule)
board.memory.mem_ctrl.dram.rank0.prePowerDownEnergy            0                       # Energy for precharge power-down per rank (pJ) (Joule)
board.memory.mem_ctrl.dram.rank0.selfRefreshEnergy            0                       # Energy for self refresh per rank (pJ) (Joule)
board.memory.mem_ctrl.dram.rank0.totalEnergy     93054780                       # Total energy per rank (pJ) (Joule)
board.memory.mem_ctrl.dram.rank0.averagePower   846.899533                       # Core power per rank (mW) (Watt)
board.memory.mem_ctrl.dram.rank0.totalIdleTime            0                       # Total Idle time Per DRAM Rank (Tick)
board.memory.mem_ctrl.dram.rank0.pwrStateTime::IDLE      1023100                       # Time in different power states (Tick)
board.memory.mem_ctrl.dram.rank0.pwrStateTime::REF      3640000                       # Time in different power states (Tick)
board.memory.mem_ctrl.dram.rank0.pwrStateTime::SREF            0                       # Time in different power states (Tick)
board.memory.mem_ctrl.dram.rank0.pwrStateTime::PRE_PDN            0                       # Time in different power states (Tick)
board.memory.mem_ctrl.dram.rank0.pwrStateTime::ACT    105213900                       # Time in different power states (Tick)
board.memory.mem_ctrl.dram.rank0.pwrStateTime::ACT_PDN            0                       # Time in different power states (Tick)
board.memory.mem_ctrl.dram.rank1.actEnergy      1035300                       # Energy for activate commands per rank (pJ) (Joule)
board.memory.mem_ctrl.dram.rank1.preEnergy       546480                       # Energy for precharge commands per rank (pJ) (Joule)
board.memory.mem_ctrl.dram.rank1.readEnergy     10281600                       # Energy for read commands per rank (pJ) (Joule)
board.memory.mem_ctrl.dram.rank1.writeEnergy       240120                       # Energy for write commands per rank (pJ) (Joule)
board.memory.mem_ctrl.dram.rank1.refreshEnergy 8604960.000000                       # Energy for refresh commands per rank (pJ) (Joule)
board.memory.mem_ctrl.dram.rank1.actBackEnergy     48003690                       # Energy for active background per rank (pJ) (Joule)
board.memory.mem_ctrl.dram.rank1.preBackEnergy      1768800                       # Energy for precharge background per rank (pJ) (Joule)
board.memory.mem_ctrl.dram.rank1.actPowerDownEnergy            0                       # Energy for active power-down per rank (pJ) (Joule)
board.memory.mem_ctrl.dram.rank1.prePowerDownEnergy            0                       # Energy for precharge power-down per rank (pJ) (Joule)
board.memory.mem_ctrl.dram.rank1.selfRefreshEnergy            0                       # Energy for self refresh per rank (pJ) (Joule)
board.memory.mem_ctrl.dram.rank1.totalEnergy     70480950                       # Total energy per rank (pJ) (Joule)
board.memory.mem_ctrl.dram.rank1.averagePower   641.453170                       # Core power per rank (mW) (Watt)
board.memory.mem_ctrl.dram.rank1.totalIdleTime            0                       # Total Idle time Per DRAM Rank (Tick)
board.memory.mem_ctrl.dram.rank1.pwrStateTime::IDLE      4069050                       # Time in different power states (Tick)
board.memory.mem_ctrl.dram.rank1.pwrStateTime::REF      3640000                       # Time in different power states (Tick)
board.memory.mem_ctrl.dram.rank1.pwrStateTime::SREF            0                       # Time in different power states (Tick)
board.memory.mem_ctrl.dram.rank1.pwrStateTime::PRE_PDN            0                       # Time in different power states (Tick)
board.memory.mem_ctrl.dram.rank1.pwrStateTime::ACT    102167950                       # Time in different power states (Tick)
board.memory.mem_ctrl.dram.rank1.pwrStateTime::ACT_PDN            0                       # Time in different power states (Tick)
board.memory.mem_ctrl.power_state.pwrStateResidencyTicks::UNDEFINED    109877000                       # Cumulative time (in ticks) in various power states (Tick)
board.processor.cores0.core.numCycles          549386                       # Number of cpu cycles simulated (Cycle)
board.processor.cores0.core.cpi             50.527545                       # CPI: cycles per instruction (core level) ((Cycle/Count))
board.processor.cores0.core.ipc              0.019791                       # IPC: instructions per cycle (core level) ((Count/Cycle))
board.processor.cores0.core.numWorkItemsStarted            0                       # Number of work items this cpu started (Count)
board.processor.cores0.core.numWorkItemsCompleted            0                       # Number of work items this cpu completed (Count)
board.processor.cores0.core.instsAdded          31256                       # Number of instructions added to the IQ (excludes non-spec) (Count)
board.processor.cores0.core.nonSpecInstsAdded           33                       # Number of non-speculative instructions added to the IQ (Count)
board.processor.cores0.core.instsIssued         29455                       # Number of instructions issued (Count)
board.processor.cores0.core.squashedInstsIssued           15                       # Number of squashed instructions issued (Count)
board.processor.cores0.core.squashedInstsExamined        10779                       # Number of squashed instructions iterated over during squash; mainly for profiling (Count)
board.processor.cores0.core.squashedOperandsExamined        20547                       # Number of squashed operands that are examined and possibly removed from graph (Count)
board.processor.cores0.core.squashedNonSpecRemoved           20                       # Number of squashed non-spec instructions that were removed (Count)
board.processor.cores0.core.numIssuedDist::samples       165524                       # Number of insts issued each cycle (Count)
board.processor.cores0.core.numIssuedDist::mean     0.177950                       # Number of insts issued each cycle (Count)
board.processor.cores0.core.numIssuedDist::stdev     0.778966                       # Number of insts issued each cycle (Count)
board.processor.cores0.core.numIssuedDist::underflows            0      0.00%      0.00% # Number of insts issued each cycle (Count)
board.processor.cores0.core.numIssuedDist::0       152897     92.37%     92.37% # Number of insts issued each cycle (Count)
board.processor.cores0.core.numIssuedDist::1         5844      3.53%     95.90% # Number of insts issued each cycle (Count)
board.processor.cores0.core.numIssuedDist::2         2753      1.66%     97.57% # Number of insts issued each cycle (Count)
board.processor.cores0.core.numIssuedDist::3         1195      0.72%     98.29% # Number of insts issued each cycle (Count)
board.processor.cores0.core.numIssuedDist::4         1080      0.65%     98.94% # Number of insts issued each cycle (Count)
board.processor.cores0.core.numIssuedDist::5          850      0.51%     99.45% # Number of insts issued each cycle (Count)
board.processor.cores0.core.numIssuedDist::6          484      0.29%     99.75% # Number of insts issued each cycle (Count)
board.processor.cores0.core.numIssuedDist::7          322      0.19%     99.94% # Number of insts issued each cycle (Count)
board.processor.cores0.core.numIssuedDist::8           99      0.06%    100.00% # Number of insts issued each cycle (Count)
board.processor.cores0.core.numIssuedDist::overflows            0      0.00%    100.00% # Number of insts issued each cycle (Count)
board.processor.cores0.core.numIssuedDist::min_value            0                       # Number of insts issued each cycle (Count)
board.processor.cores0.core.numIssuedDist::max_value            8                       # Number of insts issued each cycle (Count)
board.processor.cores0.core.numIssuedDist::total       165524                       # Number of insts issued each cycle (Count)
board.processor.cores0.core.statFuBusy::No_OpClass            0      0.00%      0.00% # attempts to use FU when none available (Count)
board.processor.cores0.core.statFuBusy::IntAlu           32     27.35%     27.35% # attempts to use FU when none available (Count)
board.processor.cores0.core.statFuBusy::IntMult            0      0.00%     27.35% # attempts to use FU when none available (Count)
board.processor.cores0.core.statFuBusy::IntDiv            0      0.00%     27.35% # attempts to use FU when none available (Count)
board.processor.cores0.core.statFuBusy::FloatAdd            0      0.00%     27.35% # attempts to use FU when none available (Count)
board.processor.cores0.core.statFuBusy::FloatCmp            0      0.00%     27.35% # attempts to use FU when none available (Count)
board.processor.cores0.core.statFuBusy::FloatCvt            0      0.00%     27.35% # attempts to use FU when none available (Count)
board.processor.cores0.core.statFuBusy::FloatMult            0      0.00%     27.35% # attempts to use FU when none available (Count)
board.processor.cores0.core.statFuBusy::FloatMultAcc            0      0.00%     27.35% # attempts to use FU when none available (Count)
board.processor.cores0.core.statFuBusy::FloatDiv            0      0.00%     27.35% # attempts to use FU when none available (Count)
board.processor.cores0.core.statFuBusy::FloatMisc            0      0.00%     27.35% # attempts to use FU when none available (Count)
board.processor.cores0.core.statFuBusy::FloatSqrt            0      0.00%     27.35% # attempts to use FU when none available (Count)
board.processor.cores0.core.statFuBusy::SimdAdd            0      0.00%     27.35% # attempts to use FU when none available (Count)
board.processor.cores0.core.statFuBusy::SimdAddAcc            0      0.00%     27.35% # attempts to use FU when none available (Count)
board.processor.cores0.core.statFuBusy::SimdAlu            8      6.84%     34.19% # attempts to use FU when none available (Count)
board.processor.cores0.core.statFuBusy::SimdCmp            0      0.00%     34.19% # attempts to use FU when none available (Count)
board.processor.cores0.core.statFuBusy::SimdCvt            0      0.00%     34.19% # attempts to use FU when none available (Count)
board.processor.cores0.core.statFuBusy::SimdMisc            0      0.00%     34.19% # attempts to use FU when none available (Count)
board.processor.cores0.core.statFuBusy::SimdMult            0      0.00%     34.19% # attempts to use FU when none available (Count)
board.processor.cores0.core.statFuBusy::SimdMultAcc            0      0.00%     34.19% # attempts to use FU when none available (Count)
board.processor.cores0.core.statFuBusy::SimdMatMultAcc            0      0.00%     34.19% # attempts to use FU when none available (Count)
board.processor.cores0.core.statFuBusy::SimdShift            0      0.00%     34.19% # attempts to use FU when none available (Count)
board.processor.cores0.core.statFuBusy::SimdShiftAcc            0      0.00%     34.19% # attempts to use FU when none available (Count)
board.processor.cores0.core.statFuBusy::SimdDiv            0      0.00%     34.19% # attempts to use FU when none available (Count)
board.processor.cores0.core.statFuBusy::SimdSqrt            0      0.00%     34.19% # attempts to use FU when none available (Count)
board.processor.cores0.core.statFuBusy::SimdFloatAdd            0      0.00%     34.19% # attempts to use FU when none available (Count)
board.processor.cores0.core.statFuBusy::SimdFloatAlu            0      0.00%     34.19% # attempts to use FU when none available (Count)
board.processor.cores0.core.statFuBusy::SimdFloatCmp            0      0.00%     34.19% # attempts to use FU when none available (Count)
board.processor.cores0.core.statFuBusy::SimdFloatCvt            0      0.00%     34.19% # attempts to use FU when none available (Count)
board.processor.cores0.core.statFuBusy::SimdFloatDiv            0      0.00%     34.19% # attempts to use FU when none available (Count)
board.processor.cores0.core.statFuBusy::SimdFloatMisc            0      0.00%     34.19% # attempts to use FU when none available (Count)
board.processor.cores0.core.statFuBusy::SimdFloatMult            0      0.00%     34.19% # attempts to use FU when none available (Count)
board.processor.cores0.core.statFuBusy::SimdFloatMultAcc            0      0.00%     34.19% # attempts to use FU when none available (Count)
board.processor.cores0.core.statFuBusy::SimdFloatMatMultAcc            0      0.00%     34.19% # attempts to use FU when none available (Count)
board.processor.cores0.core.statFuBusy::SimdFloatSqrt            0      0.00%     34.19% # attempts to use FU when none available (Count)
board.processor.cores0.core.statFuBusy::SimdReduceAdd            0      0.00%     34.19% # attempts to use FU when none available (Count)
board.processor.cores0.core.statFuBusy::SimdReduceAlu            0      0.00%     34.19% # attempts to use FU when none available (Count)
board.processor.cores0.core.statFuBusy::SimdReduceCmp            0      0.00%     34.19% # attempts to use FU when none available (Count)
board.processor.cores0.core.statFuBusy::SimdFloatReduceAdd            0      0.00%     34.19% # attempts to use FU when none available (Count)
board.processor.cores0.core.statFuBusy::SimdFloatReduceCmp            0      0.00%     34.19% # attempts to use FU when none available (Count)
board.processor.cores0.core.statFuBusy::SimdAes            0      0.00%     34.19% # attempts to use FU when none available (Count)
board.processor.cores0.core.statFuBusy::SimdAesMix            0      0.00%     34.19% # attempts to use FU when none available (Count)
board.processor.cores0.core.statFuBusy::SimdSha1Hash            0      0.00%     34.19% # attempts to use FU when none available (Count)
board.processor.cores0.core.statFuBusy::SimdSha1Hash2            0      0.00%     34.19% # attempts to use FU when none available (Count)
board.processor.cores0.core.statFuBusy::SimdSha256Hash            0      0.00%     34.19% # attempts to use FU when none available (Count)
board.processor.cores0.core.statFuBusy::SimdSha256Hash2            0      0.00%     34.19% # attempts to use FU when none available (Count)
board.processor.cores0.core.statFuBusy::SimdShaSigma2            0      0.00%     34.19% # attempts to use FU when none available (Count)
board.processor.cores0.core.statFuBusy::SimdShaSigma3            0      0.00%     34.19% # attempts to use FU when none available (Count)
board.processor.cores0.core.statFuBusy::SimdPredAlu            0      0.00%     34.19% # attempts to use FU when none available (Count)
board.processor.cores0.core.statFuBusy::Matrix            0      0.00%     34.19% # attempts to use FU when none available (Count)
board.processor.cores0.core.statFuBusy::MatrixMov            0      0.00%     34.19% # attempts to use FU when none available (Count)
board.processor.cores0.core.statFuBusy::MatrixOP            0      0.00%     34.19% # attempts to use FU when none available (Count)
board.processor.cores0.core.statFuBusy::MemRead           22     18.80%     52.99% # attempts to use FU when none available (Count)
board.processor.cores0.core.statFuBusy::MemWrite           29     24.79%     77.78% # attempts to use FU when none available (Count)
board.processor.cores0.core.statFuBusy::FloatMemRead           18     15.38%     93.16% # attempts to use FU when none available (Count)
board.processor.cores0.core.statFuBusy::FloatMemWrite            8      6.84%    100.00% # attempts to use FU when none available (Count)
board.processor.cores0.core.statFuBusy::IprAccess            0      0.00%    100.00% # attempts to use FU when none available (Count)
board.processor.cores0.core.statFuBusy::InstPrefetch            0      0.00%    100.00% # attempts to use FU when none available (Count)
board.processor.cores0.core.statFuBusy::VectorUnitStrideLoad            0      0.00%    100.00% # attempts to use FU when none available (Count)
board.processor.cores0.core.statFuBusy::VectorUnitStrideStore            0      0.00%    100.00% # attempts to use FU when none available (Count)
board.processor.cores0.core.statFuBusy::VectorUnitStrideMaskLoad            0      0.00%    100.00% # attempts to use FU when none available (Count)
board.processor.cores0.core.statFuBusy::VectorUnitStrideMaskStore            0      0.00%    100.00% # attempts to use FU when none available (Count)
board.processor.cores0.core.statFuBusy::VectorStridedLoad            0      0.00%    100.00% # attempts to use FU when none available (Count)
board.processor.cores0.core.statFuBusy::VectorStridedStore            0      0.00%    100.00% # attempts to use FU when none available (Count)
board.processor.cores0.core.statFuBusy::VectorIndexedLoad            0      0.00%    100.00% # attempts to use FU when none available (Count)
board.processor.cores0.core.statFuBusy::VectorIndexedStore            0      0.00%    100.00% # attempts to use FU when none available (Count)
board.processor.cores0.core.statFuBusy::VectorUnitStrideFaultOnlyFirstLoad            0      0.00%    100.00% # attempts to use FU when none available (Count)
board.processor.cores0.core.statFuBusy::VectorWholeRegisterLoad            0      0.00%    100.00% # attempts to use FU when none available (Count)
board.processor.cores0.core.statFuBusy::VectorWholeRegisterStore            0      0.00%    100.00% # attempts to use FU when none available (Count)
board.processor.cores0.core.statFuBusy::VectorIntegerArith            0      0.00%    100.00% # attempts to use FU when none available (Count)
board.processor.cores0.core.statFuBusy::VectorFloatArith            0      0.00%    100.00% # attempts to use FU when none available (Count)
board.processor.cores0.core.statFuBusy::VectorFloatConvert            0      0.00%    100.00% # attempts to use FU when none available (Count)
board.processor.cores0.core.statFuBusy::VectorIntegerReduce            0      0.00%    100.00% # attempts to use FU when none available (Count)
board.processor.cores0.core.statFuBusy::VectorFloatReduce            0      0.00%    100.00% # attempts to use FU when none available (Count)
board.processor.cores0.core.statFuBusy::VectorMisc            0      0.00%    100.00% # attempts to use FU when none available (Count)
board.processor.cores0.core.statFuBusy::VectorIntegerExtension            0      0.00%    100.00% # attempts to use FU when none available (Count)
board.processor.cores0.core.statFuBusy::VectorConfig            0      0.00%    100.00% # attempts to use FU when none available (Count)
board.processor.cores0.core.statIssuedInstType_0::No_OpClass          655      2.22%      2.22% # Number of instructions issued per FU type, per thread (Count)
board.processor.cores0.core.statIssuedInstType_0::IntAlu        21078     71.56%     73.78% # Number of instructions issued per FU type, per thread (Count)
board.processor.cores0.core.statIssuedInstType_0::IntMult           14      0.05%     73.83% # Number of instructions issued per FU type, per thread (Count)
board.processor.cores0.core.statIssuedInstType_0::IntDiv           21      0.07%     73.90% # Number of instructions issued per FU type, per thread (Count)
board.processor.cores0.core.statIssuedInstType_0::FloatAdd          215      0.73%     74.63% # Number of instructions issued per FU type, per thread (Count)
board.processor.cores0.core.statIssuedInstType_0::FloatCmp            0      0.00%     74.63% # Number of instructions issued per FU type, per thread (Count)
board.processor.cores0.core.statIssuedInstType_0::FloatCvt            0      0.00%     74.63% # Number of instructions issued per FU type, per thread (Count)
board.processor.cores0.core.statIssuedInstType_0::FloatMult            0      0.00%     74.63% # Number of instructions issued per FU type, per thread (Count)
board.processor.cores0.core.statIssuedInstType_0::FloatMultAcc            0      0.00%     74.63% # Number of instructions issued per FU type, per thread (Count)
board.processor.cores0.core.statIssuedInstType_0::FloatDiv            0      0.00%     74.63% # Number of instructions issued per FU type, per thread (Count)
board.processor.cores0.core.statIssuedInstType_0::FloatMisc            0      0.00%     74.63% # Number of instructions issued per FU type, per thread (Count)
board.processor.cores0.core.statIssuedInstType_0::FloatSqrt            0      0.00%     74.63% # Number of instructions issued per FU type, per thread (Count)
board.processor.cores0.core.statIssuedInstType_0::SimdAdd            8      0.03%     74.66% # Number of instructions issued per FU type, per thread (Count)
board.processor.cores0.core.statIssuedInstType_0::SimdAddAcc            0      0.00%     74.66% # Number of instructions issued per FU type, per thread (Count)
board.processor.cores0.core.statIssuedInstType_0::SimdAlu          134      0.45%     75.11% # Number of instructions issued per FU type, per thread (Count)
board.processor.cores0.core.statIssuedInstType_0::SimdCmp            0      0.00%     75.11% # Number of instructions issued per FU type, per thread (Count)
board.processor.cores0.core.statIssuedInstType_0::SimdCvt           46      0.16%     75.27% # Number of instructions issued per FU type, per thread (Count)
board.processor.cores0.core.statIssuedInstType_0::SimdMisc          259      0.88%     76.15% # Number of instructions issued per FU type, per thread (Count)
board.processor.cores0.core.statIssuedInstType_0::SimdMult            0      0.00%     76.15% # Number of instructions issued per FU type, per thread (Count)
board.processor.cores0.core.statIssuedInstType_0::SimdMultAcc            0      0.00%     76.15% # Number of instructions issued per FU type, per thread (Count)
board.processor.cores0.core.statIssuedInstType_0::SimdMatMultAcc            0      0.00%     76.15% # Number of instructions issued per FU type, per thread (Count)
board.processor.cores0.core.statIssuedInstType_0::SimdShift            0      0.00%     76.15% # Number of instructions issued per FU type, per thread (Count)
board.processor.cores0.core.statIssuedInstType_0::SimdShiftAcc            0      0.00%     76.15% # Number of instructions issued per FU type, per thread (Count)
board.processor.cores0.core.statIssuedInstType_0::SimdDiv            0      0.00%     76.15% # Number of instructions issued per FU type, per thread (Count)
board.processor.cores0.core.statIssuedInstType_0::SimdSqrt            0      0.00%     76.15% # Number of instructions issued per FU type, per thread (Count)
board.processor.cores0.core.statIssuedInstType_0::SimdFloatAdd           10      0.03%     76.18% # Number of instructions issued per FU type, per thread (Count)
board.processor.cores0.core.statIssuedInstType_0::SimdFloatAlu            0      0.00%     76.18% # Number of instructions issued per FU type, per thread (Count)
board.processor.cores0.core.statIssuedInstType_0::SimdFloatCmp            0      0.00%     76.18% # Number of instructions issued per FU type, per thread (Count)
board.processor.cores0.core.statIssuedInstType_0::SimdFloatCvt            0      0.00%     76.18% # Number of instructions issued per FU type, per thread (Count)
board.processor.cores0.core.statIssuedInstType_0::SimdFloatDiv            0      0.00%     76.18% # Number of instructions issued per FU type, per thread (Count)
board.processor.cores0.core.statIssuedInstType_0::SimdFloatMisc            0      0.00%     76.18% # Number of instructions issued per FU type, per thread (Count)
board.processor.cores0.core.statIssuedInstType_0::SimdFloatMult            0      0.00%     76.18% # Number of instructions issued per FU type, per thread (Count)
board.processor.cores0.core.statIssuedInstType_0::SimdFloatMultAcc            0      0.00%     76.18% # Number of instructions issued per FU type, per thread (Count)
board.processor.cores0.core.statIssuedInstType_0::SimdFloatMatMultAcc            0      0.00%     76.18% # Number of instructions issued per FU type, per thread (Count)
board.processor.cores0.core.statIssuedInstType_0::SimdFloatSqrt            0      0.00%     76.18% # Number of instructions issued per FU type, per thread (Count)
board.processor.cores0.core.statIssuedInstType_0::SimdReduceAdd            0      0.00%     76.18% # Number of instructions issued per FU type, per thread (Count)
board.processor.cores0.core.statIssuedInstType_0::SimdReduceAlu            0      0.00%     76.18% # Number of instructions issued per FU type, per thread (Count)
board.processor.cores0.core.statIssuedInstType_0::SimdReduceCmp            0      0.00%     76.18% # Number of instructions issued per FU type, per thread (Count)
board.processor.cores0.core.statIssuedInstType_0::SimdFloatReduceAdd            0      0.00%     76.18% # Number of instructions issued per FU type, per thread (Count)
board.processor.cores0.core.statIssuedInstType_0::SimdFloatReduceCmp            0      0.00%     76.18% # Number of instructions issued per FU type, per thread (Count)
board.processor.cores0.core.statIssuedInstType_0::SimdAes            0      0.00%     76.18% # Number of instructions issued per FU type, per thread (Count)
board.processor.cores0.core.statIssuedInstType_0::SimdAesMix            0      0.00%     76.18% # Number of instructions issued per FU type, per thread (Count)
board.processor.cores0.core.statIssuedInstType_0::SimdSha1Hash            0      0.00%     76.18% # Number of instructions issued per FU type, per thread (Count)
board.processor.cores0.core.statIssuedInstType_0::SimdSha1Hash2            0      0.00%     76.18% # Number of instructions issued per FU type, per thread (Count)
board.processor.cores0.core.statIssuedInstType_0::SimdSha256Hash            0      0.00%     76.18% # Number of instructions issued per FU type, per thread (Count)
board.processor.cores0.core.statIssuedInstType_0::SimdSha256Hash2            0      0.00%     76.18% # Number of instructions issued per FU type, per thread (Count)
board.processor.cores0.core.statIssuedInstType_0::SimdShaSigma2            0      0.00%     76.18% # Number of instructions issued per FU type, per thread (Count)
board.processor.cores0.core.statIssuedInstType_0::SimdShaSigma3            0      0.00%     76.18% # Number of instructions issued per FU type, per thread (Count)
board.processor.cores0.core.statIssuedInstType_0::SimdPredAlu            0      0.00%     76.18% # Number of instructions issued per FU type, per thread (Count)
board.processor.cores0.core.statIssuedInstType_0::Matrix            0      0.00%     76.18% # Number of instructions issued per FU type, per thread (Count)
board.processor.cores0.core.statIssuedInstType_0::MatrixMov            0      0.00%     76.18% # Number of instructions issued per FU type, per thread (Count)
board.processor.cores0.core.statIssuedInstType_0::MatrixOP            0      0.00%     76.18% # Number of instructions issued per FU type, per thread (Count)
board.processor.cores0.core.statIssuedInstType_0::MemRead         4128     14.01%     90.20% # Number of instructions issued per FU type, per thread (Count)
board.processor.cores0.core.statIssuedInstType_0::MemWrite         1835      6.23%     96.43% # Number of instructions issued per FU type, per thread (Count)
board.processor.cores0.core.statIssuedInstType_0::FloatMemRead          446      1.51%     97.94% # Number of instructions issued per FU type, per thread (Count)
board.processor.cores0.core.statIssuedInstType_0::FloatMemWrite          606      2.06%    100.00% # Number of instructions issued per FU type, per thread (Count)
board.processor.cores0.core.statIssuedInstType_0::IprAccess            0      0.00%    100.00% # Number of instructions issued per FU type, per thread (Count)
board.processor.cores0.core.statIssuedInstType_0::InstPrefetch            0      0.00%    100.00% # Number of instructions issued per FU type, per thread (Count)
board.processor.cores0.core.statIssuedInstType_0::VectorUnitStrideLoad            0      0.00%    100.00% # Number of instructions issued per FU type, per thread (Count)
board.processor.cores0.core.statIssuedInstType_0::VectorUnitStrideStore            0      0.00%    100.00% # Number of instructions issued per FU type, per thread (Count)
board.processor.cores0.core.statIssuedInstType_0::VectorUnitStrideMaskLoad            0      0.00%    100.00% # Number of instructions issued per FU type, per thread (Count)
board.processor.cores0.core.statIssuedInstType_0::VectorUnitStrideMaskStore            0      0.00%    100.00% # Number of instructions issued per FU type, per thread (Count)
board.processor.cores0.core.statIssuedInstType_0::VectorStridedLoad            0      0.00%    100.00% # Number of instructions issued per FU type, per thread (Count)
board.processor.cores0.core.statIssuedInstType_0::VectorStridedStore            0      0.00%    100.00% # Number of instructions issued per FU type, per thread (Count)
board.processor.cores0.core.statIssuedInstType_0::VectorIndexedLoad            0      0.00%    100.00% # Number of instructions issued per FU type, per thread (Count)
board.processor.cores0.core.statIssuedInstType_0::VectorIndexedStore            0      0.00%    100.00% # Number of instructions issued per FU type, per thread (Count)
board.processor.cores0.core.statIssuedInstType_0::VectorUnitStrideFaultOnlyFirstLoad            0      0.00%    100.00% # Number of instructions issued per FU type, per thread (Count)
board.processor.cores0.core.statIssuedInstType_0::VectorWholeRegisterLoad            0      0.00%    100.00% # Number of instructions issued per FU type, per thread (Count)
board.processor.cores0.core.statIssuedInstType_0::VectorWholeRegisterStore            0      0.00%    100.00% # Number of instructions issued per FU type, per thread (Count)
board.processor.cores0.core.statIssuedInstType_0::VectorIntegerArith            0      0.00%    100.00% # Number of instructions issued per FU type, per thread (Count)
board.processor.cores0.core.statIssuedInstType_0::VectorFloatArith            0      0.00%    100.00% # Number of instructions issued per FU type, per thread (Count)
board.processor.cores0.core.statIssuedInstType_0::VectorFloatConvert            0      0.00%    100.00% # Number of instructions issued per FU type, per thread (Count)
board.processor.cores0.core.statIssuedInstType_0::VectorIntegerReduce            0      0.00%    100.00% # Number of instructions issued per FU type, per thread (Count)
board.processor.cores0.core.statIssuedInstType_0::VectorFloatReduce            0      0.00%    100.00% # Number of instructions issued per FU type, per thread (Count)
board.processor.cores0.core.statIssuedInstType_0::VectorMisc            0      0.00%    100.00% # Number of instructions issued per FU type, per thread (Count)
board.processor.cores0.core.statIssuedInstType_0::VectorIntegerExtension            0      0.00%    100.00% # Number of instructions issued per FU type, per thread (Count)
board.processor.cores0.core.statIssuedInstType_0::VectorConfig            0      0.00%    100.00% # Number of instructions issued per FU type, per thread (Count)
board.processor.cores0.core.statIssuedInstType_0::total        29455                       # Number of instructions issued per FU type, per thread (Count)
board.processor.cores0.core.issueRate        0.053614                       # Inst issue rate ((Count/Cycle))
board.processor.cores0.core.fuBusy                117                       # FU busy when requested (Count)
board.processor.cores0.core.fuBusyRate       0.003972                       # FU busy rate (busy events/executed inst) ((Count/Count))
board.processor.cores0.core.intInstQueueReads       220756                       # Number of integer instruction queue reads (Count)
board.processor.cores0.core.intInstQueueWrites        40113                       # Number of integer instruction queue writes (Count)
board.processor.cores0.core.intInstQueueWakeupAccesses        25129                       # Number of integer instruction queue wakeup accesses (Count)
board.processor.cores0.core.fpInstQueueReads         3810                       # Number of floating instruction queue reads (Count)
board.processor.cores0.core.fpInstQueueWrites         1974                       # Number of floating instruction queue writes (Count)
board.processor.cores0.core.fpInstQueueWakeupAccesses         1582                       # Number of floating instruction queue wakeup accesses (Count)
board.processor.cores0.core.vecInstQueueReads            0                       # Number of vector instruction queue reads (Count)
board.processor.cores0.core.vecInstQueueWrites            0                       # Number of vector instruction queue writes (Count)
board.processor.cores0.core.vecInstQueueWakeupAccesses            0                       # Number of vector instruction queue wakeup accesses (Count)
board.processor.cores0.core.intAluAccesses        26995                       # Number of integer alu accesses (Count)
board.processor.cores0.core.fpAluAccesses         1922                       # Number of floating point alu accesses (Count)
board.processor.cores0.core.vecAluAccesses            0                       # Number of vector alu accesses (Count)
board.processor.cores0.core.numSquashedInsts          134                       # Number of squashed instructions skipped in execute (Count)
board.processor.cores0.core.numSwp                  0                       # Number of swp insts executed (Count)
board.processor.cores0.core.timesIdled           3998                       # Number of times that the entire CPU went into an idle state and unscheduled itself (Count)
board.processor.cores0.core.idleCycles         383862                       # Total number of cycles that the CPU has spent unscheduled due to idling (Cycle)
board.processor.cores0.core.MemDepUnit__0.insertedLoads         3694                       # Number of loads inserted to the mem dependence unit. (Count)
board.processor.cores0.core.MemDepUnit__0.insertedStores         2911                       # Number of stores inserted to the mem dependence unit. (Count)
board.processor.cores0.core.MemDepUnit__0.conflictingLoads          124                       # Number of conflicting loads. (Count)
board.processor.cores0.core.MemDepUnit__0.conflictingStores          124                       # Number of conflicting stores. (Count)
board.processor.cores0.core.MemDepUnit__1.insertedLoads            0                       # Number of loads inserted to the mem dependence unit. (Count)
board.processor.cores0.core.MemDepUnit__1.insertedStores            0                       # Number of stores inserted to the mem dependence unit. (Count)
board.processor.cores0.core.MemDepUnit__1.conflictingLoads            0                       # Number of conflicting loads. (Count)
board.processor.cores0.core.MemDepUnit__1.conflictingStores            0                       # Number of conflicting stores. (Count)
board.processor.cores0.core.MemDepUnit__2.insertedLoads            0                       # Number of loads inserted to the mem dependence unit. (Count)
board.processor.cores0.core.MemDepUnit__2.insertedStores            0                       # Number of stores inserted to the mem dependence unit. (Count)
board.processor.cores0.core.MemDepUnit__2.conflictingLoads            0                       # Number of conflicting loads. (Count)
board.processor.cores0.core.MemDepUnit__2.conflictingStores            0                       # Number of conflicting stores. (Count)
board.processor.cores0.core.MemDepUnit__3.insertedLoads            0                       # Number of loads inserted to the mem dependence unit. (Count)
[...]
board.processor.cores1.core.commitStats0.committedInstType::SimdDiv            0                       # Class of committed instruction. (Count)
board.processor.cores1.core.commitStats0.committedInstType::SimdSqrt            0                       # Class of committed instruction. (Count)
board.processor.cores1.core.commitStats0.committedInstType::SimdFloatAdd            0                       # Class of committed instruction. (Count)
board.processor.cores1.core.commitStats0.committedInstType::SimdFloatAlu            0                       # Class of committed instruction. (Count)
board.processor.cores1.core.commitStats0.committedInstType::SimdFloatCmp            0                       # Class of committed instruction. (Count)
board.processor.cores1.core.commitStats0.committedInstType::SimdFloatCvt            0                       # Class of committed instruction. (Count)
board.processor.cores1.core.commitStats0.committedInstType::SimdFloatDiv            0                       # Class of committed instruction. (Count)
board.processor.cores1.core.commitStats0.committedInstType::SimdFloatMisc            0                       # Class of committed instruction. (Count)
board.processor.cores1.core.commitStats0.committedInstType::SimdFloatMult            0                       # Class of committed instruction. (Count)
board.processor.cores1.core.commitStats0.committedInstType::SimdFloatMultAcc            0                       # Class of committed instruction. (Count)
board.processor.cores1.core.commitStats0.committedInstType::SimdFloatMatMultAcc            0                       # Class of committed instruction. (Count)
board.processor.cores1.core.commitStats0.committedInstType::SimdFloatSqrt            0                       # Class of committed instruction. (Count)
board.processor.cores1.core.commitStats0.committedInstType::SimdReduceAdd            0                       # Class of committed instruction. (Count)
board.processor.cores1.core.commitStats0.committedInstType::SimdReduceAlu            0                       # Class of committed instruction. (Count)
board.processor.cores1.core.commitStats0.committedInstType::SimdReduceCmp            0                       # Class of committed instruction. (Count)
board.processor.cores1.core.commitStats0.committedInstType::SimdFloatReduceAdd            0                       # Class of committed instruction. (Count)
board.processor.cores1.core.commitStats0.committedInstType::SimdFloatReduceCmp            0                       # Class of committed instruction. (Count)
board.processor.cores1.core.commitStats0.committedInstType::SimdAes            0                       # Class of committed instruction. (Count)
board.processor.cores1.core.commitStats0.committedInstType::SimdAesMix            0                       # Class of committed instruction. (Count)
board.processor.cores1.core.commitStats0.committedInstType::SimdSha1Hash            0                       # Class of committed instruction. (Count)
board.processor.cores1.core.commitStats0.committedInstType::SimdSha1Hash2            0                       # Class of committed instruction. (Count)
board.processor.cores1.core.commitStats0.committedInstType::SimdSha256Hash            0                       # Class of committed instruction. (Count)
board.processor.cores1.core.commitStats0.committedInstType::SimdSha256Hash2            0                       # Class of committed instruction. (Count)
board.processor.cores1.core.commitStats0.committedInstType::SimdShaSigma2            0                       # Class of committed instruction. (Count)
board.processor.cores1.core.commitStats0.committedInstType::SimdShaSigma3            0                       # Class of committed instruction. (Count)
board.processor.cores1.core.commitStats0.committedInstType::SimdPredAlu            0                       # Class of committed instruction. (Count)
board.processor.cores1.core.commitStats0.committedInstType::Matrix            0                       # Class of committed instruction. (Count)
board.processor.cores1.core.commitStats0.committedInstType::MatrixMov            0                       # Class of committed instruction. (Count)
board.processor.cores1.core.commitStats0.committedInstType::MatrixOP            0                       # Class of committed instruction. (Count)
board.processor.cores1.core.commitStats0.committedInstType::MemRead            0                       # Class of committed instruction. (Count)
board.processor.cores1.core.commitStats0.committedInstType::MemWrite            0                       # Class of committed instruction. (Count)
board.processor.cores1.core.commitStats0.committedInstType::FloatMemRead            0                       # Class of committed instruction. (Count)
board.processor.cores1.core.commitStats0.committedInstType::FloatMemWrite            0                       # Class of committed instruction. (Count)
board.processor.cores1.core.commitStats0.committedInstType::IprAccess            0                       # Class of committed instruction. (Count)
board.processor.cores1.core.commitStats0.committedInstType::InstPrefetch            0                       # Class of committed instruction. (Count)
board.processor.cores1.core.commitStats0.committedInstType::VectorUnitStrideLoad            0                       # Class of committed instruction. (Count)
board.processor.cores1.core.commitStats0.committedInstType::VectorUnitStrideStore            0                       # Class of committed instruction. (Count)
board.processor.cores1.core.commitStats0.committedInstType::VectorUnitStrideMaskLoad            0                       # Class of committed instruction. (Count)
board.processor.cores1.core.commitStats0.committedInstType::VectorUnitStrideMaskStore            0                       # Class of committed instruction. (Count)
board.processor.cores1.core.commitStats0.committedInstType::VectorStridedLoad            0                       # Class of committed instruction. (Count)
board.processor.cores1.core.commitStats0.committedInstType::VectorStridedStore            0                       # Class of committed instruction. (Count)
board.processor.cores1.core.commitStats0.committedInstType::VectorIndexedLoad            0                       # Class of committed instruction. (Count)
board.processor.cores1.core.commitStats0.committedInstType::VectorIndexedStore            0                       # Class of committed instruction. (Count)
board.processor.cores1.core.commitStats0.committedInstType::VectorUnitStrideFaultOnlyFirstLoad            0                       # Class of committed instruction. (Count)
board.processor.cores1.core.commitStats0.committedInstType::VectorWholeRegisterLoad            0                       # Class of committed instruction. (Count)
board.processor.cores1.core.commitStats0.committedInstType::VectorWholeRegisterStore            0                       # Class of committed instruction. (Count)
board.processor.cores1.core.commitStats0.committedInstType::VectorIntegerArith            0                       # Class of committed instruction. (Count)
board.processor.cores1.core.commitStats0.committedInstType::VectorFloatArith            0                       # Class of committed instruction. (Count)
board.processor.cores1.core.commitStats0.committedInstType::VectorFloatConvert            0                       # Class of committed instruction. (Count)
board.processor.cores1.core.commitStats0.committedInstType::VectorIntegerReduce            0                       # Class of committed instruction. (Count)
board.processor.cores1.core.commitStats0.committedInstType::VectorFloatReduce            0                       # Class of committed instruction. (Count)
board.processor.cores1.core.commitStats0.committedInstType::VectorMisc            0                       # Class of committed instruction. (Count)
board.processor.cores1.core.commitStats0.committedInstType::VectorIntegerExtension            0                       # Class of committed instruction. (Count)
board.processor.cores1.core.commitStats0.committedInstType::VectorConfig            0                       # Class of committed instruction. (Count)
board.processor.cores1.core.commitStats0.committedInstType::total            0                       # Class of committed instruction. (Count)
board.processor.cores1.core.executeStats0.numInsts            0                       # Number of executed instructions (Count)
board.processor.cores1.core.executeStats0.numNop            0                       # Number of nop insts executed (Count)
board.processor.cores1.core.executeStats0.numBranches            0                       # Number of branches executed (Count)
board.processor.cores1.core.executeStats0.numLoadInsts            0                       # Number of load instructions executed (Count)
board.processor.cores1.core.executeStats0.numStoreInsts            0                       # Number of stores executed (Count)
board.processor.cores1.core.executeStats0.instRate          nan                       # Inst execution rate ((Count/Cycle))
board.processor.cores1.core.executeStats0.numFpRegWrites            0                       # Number of times the floating registers were written (Count)
board.processor.cores1.core.executeStats0.numMemRefs            0                       # Number of memory refs (Count)
board.processor.cores1.core.executeStats0.numVecAluAccesses            0                       # Number of vector alu accesses (Count)
board.processor.cores1.core.executeStats0.numDiscardedOps            0                       # Number of ops (including micro ops) which were discarded before commit (Count)
board.processor.cores1.core.fetch.nisnDist::samples            0                       # Number of instructions fetched each cycle (Total) (Count)
board.processor.cores1.core.fetch.nisnDist::mean          nan                       # Number of instructions fetched each cycle (Total) (Count)
board.processor.cores1.core.fetch.nisnDist::stdev          nan                       # Number of instructions fetched each cycle (Total) (Count)
board.processor.cores1.core.fetch.nisnDist::underflows            0                       # Number of instructions fetched each cycle (Total) (Count)
board.processor.cores1.core.fetch.nisnDist::0            0                       # Number of instructions fetched each cycle (Total) (Count)
board.processor.cores1.core.fetch.nisnDist::1            0                       # Number of instructions fetched each cycle (Total) (Count)
board.processor.cores1.core.fetch.nisnDist::2            0                       # Number of instructions fetched each cycle (Total) (Count)
board.processor.cores1.core.fetch.nisnDist::3            0                       # Number of instructions fetched each cycle (Total) (Count)
board.processor.cores1.core.fetch.nisnDist::4            0                       # Number of instructions fetched each cycle (Total) (Count)
board.processor.cores1.core.fetch.nisnDist::5            0                       # Number of instructions fetched each cycle (Total) (Count)
board.processor.cores1.core.fetch.nisnDist::6            0                       # Number of instructions fetched each cycle (Total) (Count)
board.processor.cores1.core.fetch.nisnDist::7            0                       # Number of instructions fetched each cycle (Total) (Count)
board.processor.cores1.core.fetch.nisnDist::8            0                       # Number of instructions fetched each cycle (Total) (Count)
board.processor.cores1.core.fetch.nisnDist::overflows            0                       # Number of instructions fetched each cycle (Total) (Count)
board.processor.cores1.core.fetch.nisnDist::min_value            0                       # Number of instructions fetched each cycle (Total) (Count)
board.processor.cores1.core.fetch.nisnDist::max_value            0                       # Number of instructions fetched each cycle (Total) (Count)
board.processor.cores1.core.fetch.nisnDist::total            0                       # Number of instructions fetched each cycle (Total) (Count)
board.processor.cores1.core.fetch.idleRate          nan                       # Ratio of cycles fetch was idle (Ratio)
board.processor.cores1.core.fetchStats0.numInsts            0                       # Number of instructions fetched (thread level) (Count)
board.processor.cores1.core.fetchStats0.numOps            0                       # Number of ops (including micro ops) fetched (thread level) (Count)
board.processor.cores1.core.fetchStats0.fetchRate          nan                       # Number of inst fetches per cycle ((Count/Cycle))
board.processor.cores1.core.fetchStats0.branchRate          nan                       # Number of branch fetches per cycle (Ratio)
board.processor.cores1.core.fetchStats0.numFetchSuspends            0                       # Number of times Execute suspended instruction fetching (Count)
board.processor.cores1.core.iew.idleCycles            0                       # Number of cycles IEW is idle (Cycle)
board.processor.cores1.core.iew.squashCycles            0                       # Number of cycles IEW is squashing (Cycle)
board.processor.cores1.core.iew.blockCycles            0                       # Number of cycles IEW is blocking (Cycle)
board.processor.cores1.core.iew.unblockCycles            0                       # Number of cycles IEW is unblocking (Cycle)
board.processor.cores1.core.iew.dispatchedInsts            0                       # Number of instructions dispatched to IQ (Count)
board.processor.cores1.core.iew.dispSquashedInsts            0                       # Number of squashed instructions skipped by dispatch (Count)
board.processor.cores1.core.iew.dispLoadInsts            0                       # Number of dispatched load instructions (Count)
board.processor.cores1.core.iew.dispStoreInsts            0                       # Number of dispatched store instructions (Count)
board.processor.cores1.core.iew.dispNonSpecInsts            0                       # Number of dispatched non-speculative instructions (Count)
board.processor.cores1.core.iew.iqFullEvents            0                       # Number of times the IQ has become full, causing a stall (Count)
board.processor.cores1.core.iew.lsqFullEvents            0                       # Number of times the LSQ has become full, causing a stall (Count)
board.processor.cores1.core.iew.memOrderViolationEvents            0                       # Number of memory order violations (Count)
board.processor.cores1.core.iew.predictedTakenIncorrect            0                       # Number of branches that were predicted taken incorrectly (Count)
board.processor.cores1.core.iew.predictedNotTakenIncorrect            0                       # Number of branches that were predicted not taken incorrectly (Count)
board.processor.cores1.core.iew.branchMispredicts            0                       # Number of branch mispredicts detected at execute (Count)
board.processor.cores1.core.iew.instsToCommit            0                       # Cumulative count of insts sent to commit (Count)
board.processor.cores1.core.iew.writebackCount            0                       # Cumulative count of insts written-back (Count)
board.processor.cores1.core.iew.producerInst            0                       # Number of instructions producing a value (Count)
board.processor.cores1.core.iew.consumerInst            0                       # Number of instructions consuming a value (Count)
board.processor.cores1.core.iew.wbRate            nan                       # Insts written-back per cycle ((Count/Cycle))
board.processor.cores1.core.iew.wbFanout          nan                       # Average fanout of values written-back ((Count/Count))
board.processor.cores1.core.interrupts.clk_domain.clock         3200                       # Clock period in ticks (Tick)
board.processor.cores1.core.lsq0.forwLoads            0                       # Number of loads that had data forwarded from stores (Count)
board.processor.cores1.core.lsq0.squashedLoads            0                       # Number of loads squashed (Count)
board.processor.cores1.core.lsq0.ignoredResponses            0                       # Number of memory responses ignored because the instruction is squashed (Count)
board.processor.cores1.core.lsq0.memOrderViolation            0                       # Number of memory ordering violations (Count)
board.processor.cores1.core.lsq0.squashedStores            0                       # Number of stores squashed (Count)
board.processor.cores1.core.lsq0.rescheduledLoads            0                       # Number of loads that were rescheduled (Count)
board.processor.cores1.core.lsq0.blockedByCache            0                       # Number of times an access to memory failed due to the cache being blocked (Count)
board.processor.cores1.core.mmu.dtb.rdAccesses            0                       # TLB accesses on read requests (Count)
board.processor.cores1.core.mmu.dtb.wrAccesses            0                       # TLB accesses on write requests (Count)
board.processor.cores1.core.mmu.dtb.rdMisses            0                       # TLB misses on read requests (Count)
board.processor.cores1.core.mmu.dtb.wrMisses            0                       # TLB misses on write requests (Count)
board.processor.cores1.core.mmu.dtb.walker.power_state.pwrStateResidencyTicks::UNDEFINED      6317200                       # Cumulative time (in ticks) in various power states (Tick)
board.processor.cores1.core.mmu.itb.rdAccesses            0                       # TLB accesses on read requests (Count)
board.processor.cores1.core.mmu.itb.wrAccesses            0                       # TLB accesses on write requests (Count)
board.processor.cores1.core.mmu.itb.rdMisses            0                       # TLB misses on read requests (Count)
board.processor.cores1.core.mmu.itb.wrMisses            0                       # TLB misses on write requests (Count)
board.processor.cores1.core.mmu.itb.walker.power_state.pwrStateResidencyTicks::UNDEFINED      6317200                       # Cumulative time (in ticks) in various power states (Tick)
board.processor.cores1.core.power_state.pwrStateResidencyTicks::ON      6317200                       # Cumulative time (in ticks) in various power states (Tick)
board.processor.cores1.core.rename.serializeStallCycles            0                       # count of cycles rename stalled for serializing inst (Cycle)
board.processor.cores1.core.rename.serializing            0                       # count of serializing insts renamed (Count)
board.processor.cores1.core.rename.tempSerializing            0                       # count of temporary serializing insts renamed (Count)
board.processor.cores1.core.rename.skidInsts            0                       # count of insts added to the skid buffer (Count)
board.processor.cores1.core.rob.reads               0                       # The number of ROB reads (Count)
board.processor.cores1.core.rob.writes              0                       # The number of ROB writes (Count)
board.processor.cores1.core.thread_0.numInsts            0                       # Number of Instructions committed (Count)
board.processor.cores1.core.thread_0.numOps            0                       # Number of Ops committed (Count)
board.processor.cores1.core.thread_0.numMemRefs            0                       # Number of Memory References (Count)
board.workload.inst.arm                             0                       # number of arm instructions executed (Count)
board.workload.inst.quiesce                         0                       # number of quiesce instructions executed (Count)

---------- End Simulation Statistics   ----------
