
---------- Begin Simulation Statistics ----------
simSeconds                                   0.004909                       # Number of seconds simulated (Second)
simTicks                                   4908964800                       # Number of ticks simulated (Tick)
finalTick                                  4908964800                       # Number of ticks from beginning of simulation (restored from checkpoints and never reset) (Tick)
simFreq                                  1000000000000                       # The number of ticks per simulated second ((Tick/Second))
hostSeconds                                      4.38                       # Real time elapsed on the host (Second)
hostTickRate                               1120623900                       # The number of ticks simulated per host second (ticks/s) ((Tick/Second))
hostMemory                                    1183492                       # Number of bytes of host memory used (Byte)
simInsts                                       900139                       # Number of instructions simulated (Count)
simOps                                        1489318                       # Number of ops (including micro ops) simulated (Count)
hostInstRate                                   205482                       # Simulator instruction rate (inst/s) ((Count/Second))
hostOpRate                                     339978                       # Simulator op (including micro ops) rate (op/s) ((Count/Second))
board.cache_hierarchy.membus.transDist::ReadReq       345725                       # Transaction distribution (Count)
board.cache_hierarchy.membus.transDist::ReadResp       345724                       # Transaction distribution (Count)
board.cache_hierarchy.membus.transDist::WriteReq       121897                       # Transaction distribution (Count)
board.cache_hierarchy.membus.transDist::WriteResp       121897                       # Transaction distribution (Count)
board.cache_hierarchy.membus.transDist::LockedRMWReadReq            4                       # Transaction distribution (Count)
board.cache_hierarchy.membus.transDist::LockedRMWReadResp            4                       # Transaction distribution (Count)
board.cache_hierarchy.membus.transDist::LockedRMWWriteReq            4                       # Transaction distribution (Count)
board.cache_hierarchy.membus.transDist::LockedRMWWriteResp            4                       # Transaction distribution (Count)
board.cache_hierarchy.membus.pktCount_board.processor.cores0.core.icache_port::board.memory.mem_ctrl.port       225233                       # Packet count per connected requestor and responder (Count)
board.cache_hierarchy.membus.pktCount_board.processor.cores0.core.icache_port::total       225233                       # Packet count per connected requestor and responder (Count)
board.cache_hierarchy.membus.pktCount_board.processor.cores0.core.dcache_port::board.memory.mem_ctrl.port       710026                       # Packet count per connected requestor and responder (Count)
board.cache_hierarchy.membus.pktCount_board.processor.cores0.core.dcache_port::total       710026                       # Packet count per connected requestor and responder (Count)
board.cache_hierarchy.membus.pktCount::total       935259                       # Packet count per connected requestor and responder (Count)
board.cache_hierarchy.membus.pktSize_board.processor.cores0.core.icache_port::board.memory.mem_ctrl.port      7207424                       # Cumulative packet size per connected requestor and responder (Byte)
board.cache_hierarchy.membus.pktSize_board.processor.cores0.core.icache_port::total      7207424                       # Cumulative packet size per connected requestor and responder (Byte)
board.cache_hierarchy.membus.pktSize_board.processor.cores0.core.dcache_port::board.memory.mem_ctrl.port      2174177                       # Cumulative packet size per connected requestor and responder (Byte)
board.cache_hierarchy.membus.pktSize_board.processor.cores0.core.dcache_port::total      2174177                       # Cumulative packet size per connected requestor and responder (Byte)
board.cache_hierarchy.membus.pktSize::total      9381601                       # Cumulative packet size per connected requestor and responder (Byte)
board.cache_hierarchy.membus.snoops                 0                       # Total snoops (Count)
board.cache_hierarchy.membus.snoopTraffic            0                       # Total snoop traffic (Byte)
board.cache_hierarchy.membus.snoopFanout::samples       467630                       # Request fanout histogram (Count)
board.cache_hierarchy.membus.snoopFanout::mean            0                       # Request fanout histogram (Count)
board.cache_hierarchy.membus.snoopFanout::stdev            0                       # Request fanout histogram (Count)
board.cache_hierarchy.membus.snoopFanout::underflows            0      0.00%      0.00% # Request fanout histogram (Count)
board.cache_hierarchy.membus.snoopFanout::0       467630    100.00%    100.00% # Request fanout histogram (Count)
board.cache_hierarchy.membus.snoopFanout::1            0      0.00%    100.00% # Request fanout histogram (Count)
board.cache_hierarchy.membus.snoopFanout::2            0      0.00%    100.00% # Request fanout histogram (Count)
board.cache_hierarchy.membus.snoopFanout::overflows            0      0.00%    100.00% # Request fanout histogram (Count)
board.cache_hierarchy.membus.snoopFanout::min_value            0                       # Request fanout histogram (Count)
board.cache_hierarchy.membus.snoopFanout::max_value            0                       # Request fanout histogram (Count)
board.cache_hierarchy.membus.snoopFanout::total       467630                       # Request fanout histogram (Count)
board.cache_hierarchy.membus.badaddr_responder.power_state.pwrStateResidencyTicks::UNDEFINED   4908964800                       # Cumulative time (in ticks) in various power states (Tick)
board.cache_hierarchy.membus.power_state.pwrStateResidencyTicks::UNDEFINED   4908964800                       # Cumulative time (in ticks) in various power states (Tick)
board.cache_hierarchy.membus.reqLayer4.occupancy    117906200                       # Layer occupancy (ticks) (Tick)
board.cache_hierarchy.membus.reqLayer4.utilization          0.0                       # Layer utilization (Ratio)
board.cache_hierarchy.membus.respLayer0.occupancy     51085550                       # Layer occupancy (ticks) (Tick)
board.cache_hierarchy.membus.respLayer0.utilization          0.0                       # Layer utilization (Ratio)
board.cache_hierarchy.membus.respLayer1.occupancy    127416750                       # Layer occupancy (ticks) (Tick)
board.cache_hierarchy.membus.respLayer1.utilization          0.0                       # Layer utilization (Ratio)
board.cache_hierarchy.membus.snoop_filter.totRequests            0                       # Total number of requests made to the snoop filter. (Count)
board.cache_hierarchy.membus.snoop_filter.hitSingleRequests            0                       # Number of requests hitting in the snoop filter with a single holder of the requested data. (Count)
board.cache_hierarchy.membus.snoop_filter.hitMultiRequests            0                       # Number of requests hitting in the snoop filter with multiple (>1) holders of the requested data. (Count)
board.cache_hierarchy.membus.snoop_filter.totSnoops            0                       # Total number of snoops made to the snoop filter. (Count)
board.cache_hierarchy.membus.snoop_filter.hitSingleSnoops            0                       # Number of snoops hitting in the snoop filter with a single holder of the requested data. (Count)
board.cache_hierarchy.membus.snoop_filter.hitMultiSnoops            0                       # Number of snoops hitting in the snoop filter with multiple (>1) holders of the requested data. (Count)
board.clk_domain.clock                            200                       # Clock period in ticks (Tick)
board.clk_domain.voltage_domain.voltage             1                       # Voltage in Volts (Volt)
board.memory.mem_ctrl.avgPriority_processor.cores0.core.inst::samples    112617.00                       # Average QoS priority value for accepted requests (Count)
board.memory.mem_ctrl.avgPriority_processor.cores0.core.data::samples    156834.00                       # Average QoS priority value for accepted requests (Count)
board.memory.mem_ctrl.priorityMinLatency 0.000000018750                       # per QoS priority minimum request to response latency (Second)
board.memory.mem_ctrl.priorityMaxLatency 0.000681837750                       # per QoS priority maximum request to response latency (Second)
board.memory.mem_ctrl.numReadWriteTurnArounds          222                       # Number of turnarounds from READ to WRITE (Count)
board.memory.mem_ctrl.numWriteReadTurnArounds          222                       # Number of turnarounds from WRITE to READ (Count)
board.memory.mem_ctrl.numStayReadState         651594                       # Number of times bus staying in READ state (Count)
board.memory.mem_ctrl.numStayWriteState          3336                       # Number of times bus staying in WRITE state (Count)
board.memory.mem_ctrl.readReqs                 345729                       # Number of read requests accepted (Count)
board.memory.mem_ctrl.writeReqs                121901                       # Number of write requests accepted (Count)
board.memory.mem_ctrl.readBursts               345729                       # Number of controller read bursts, including those serviced by the write queue (Count)
board.memory.mem_ctrl.writeBursts              121901                       # Number of controller write bursts, including those merged in the write queue (Count)
board.memory.mem_ctrl.servicedByWrQ             79856                       # Number of controller read bursts serviced by the write queue (Count)
board.memory.mem_ctrl.mergedWrBursts           118323                       # Number of controller write bursts merged with an existing one (Count)
board.memory.mem_ctrl.neitherReadNorWriteReqs            0                       # Number of requests that are neither read nor write (Count)
board.memory.mem_ctrl.avgRdQLen                  2.33                       # Average read queue length when enqueuing ((Count/Tick))
board.memory.mem_ctrl.avgWrQLen                 26.38                       # Average write queue length when enqueuing ((Count/Tick))
board.memory.mem_ctrl.numRdRetry                    0                       # Number of times read queue was full causing retry (Count)
board.memory.mem_ctrl.numWrRetry                    0                       # Number of times write queue was full causing retry (Count)
board.memory.mem_ctrl.readPktSize::0              274                       # Read request sizes (log2) (Count)
board.memory.mem_ctrl.readPktSize::1            60028                       # Read request sizes (log2) (Count)
board.memory.mem_ctrl.readPktSize::2            40686                       # Read request sizes (log2) (Count)
board.memory.mem_ctrl.readPktSize::3           132124                       # Read request sizes (log2) (Count)
board.memory.mem_ctrl.readPktSize::4                0                       # Read request sizes (log2) (Count)
board.memory.mem_ctrl.readPktSize::5                0                       # Read request sizes (log2) (Count)
board.memory.mem_ctrl.readPktSize::6           112617                       # Read request sizes (log2) (Count)
board.memory.mem_ctrl.writePktSize::0              29                       # Write request sizes (log2) (Count)
board.memory.mem_ctrl.writePktSize::1           10003                       # Write request sizes (log2) (Count)
board.memory.mem_ctrl.writePktSize::2           20218                       # Write request sizes (log2) (Count)
board.memory.mem_ctrl.writePktSize::3           91651                       # Write request sizes (log2) (Count)
board.memory.mem_ctrl.writePktSize::4               0                       # Write request sizes (log2) (Count)
board.memory.mem_ctrl.writePktSize::5               0                       # Write request sizes (log2) (Count)
board.memory.mem_ctrl.writePktSize::6               0                       # Write request sizes (log2) (Count)
board.memory.mem_ctrl.rdQLenPdf::0             106686                       # What read queue length does an incoming req see (Count)
board.memory.mem_ctrl.rdQLenPdf::1              74070                       # What read queue length does an incoming req see (Count)
board.memory.mem_ctrl.rdQLenPdf::2              52870                       # What read queue length does an incoming req see (Count)
board.memory.mem_ctrl.rdQLenPdf::3              31031                       # What read queue length does an incoming req see (Count)
board.memory.mem_ctrl.rdQLenPdf::4                524                       # What read queue length does an incoming req see (Count)
board.memory.mem_ctrl.rdQLenPdf::5                186                       # What read queue length does an incoming req see (Count)
board.memory.mem_ctrl.rdQLenPdf::6                115                       # What read queue length does an incoming req see (Count)
board.memory.mem_ctrl.rdQLenPdf::7                 78                       # What read queue length does an incoming req see (Count)
board.memory.mem_ctrl.rdQLenPdf::8                 68                       # What read queue length does an incoming req see (Count)
board.memory.mem_ctrl.rdQLenPdf::9                 45                       # What read queue length does an incoming req see (Count)
board.memory.mem_ctrl.rdQLenPdf::10                37                       # What read queue length does an incoming req see (Count)
board.memory.mem_ctrl.rdQLenPdf::11                29                       # What read queue length does an incoming req see (Count)
board.memory.mem_ctrl.rdQLenPdf::12                20                       # What read queue length does an incoming req see (Count)
board.memory.mem_ctrl.rdQLenPdf::13                13                       # What read queue length does an incoming req see (Count)
board.memory.mem_ctrl.rdQLenPdf::14                14                       # What read queue length does an incoming req see (Count)
board.memory.mem_ctrl.rdQLenPdf::15                 9                       # What read queue length does an incoming req see (Count)
board.memory.mem_ctrl.rdQLenPdf::16                 7                       # What read queue length does an incoming req see (Count)
board.memory.mem_ctrl.rdQLenPdf::17                 7                       # What read queue length does an incoming req see (Count)
board.memory.mem_ctrl.rdQLenPdf::18                 7                       # What read queue length does an incoming req see (Count)
board.memory.mem_ctrl.rdQLenPdf::19                 6                       # What read queue length does an incoming req see (Count)
board.memory.mem_ctrl.rdQLenPdf::20                 8                       # What read queue length does an incoming req see (Count)
board.memory.mem_ctrl.rdQLenPdf::21                 8                       # What read queue length does an incoming req see (Count)
board.memory.mem_ctrl.rdQLenPdf::22                 6                       # What read queue length does an incoming req see (Count)
board.memory.mem_ctrl.rdQLenPdf::23                 7                       # What read queue length does an incoming req see (Count)
board.memory.mem_ctrl.rdQLenPdf::24                 6                       # What read queue length does an incoming req see (Count)
board.memory.mem_ctrl.rdQLenPdf::25                 6                       # What read queue length does an incoming req see (Count)
board.memory.mem_ctrl.rdQLenPdf::26                 6                       # What read queue length does an incoming req see (Count)
board.memory.mem_ctrl.rdQLenPdf::27                 4                       # What read queue length does an incoming req see (Count)
board.memory.mem_ctrl.rdQLenPdf::28                 0                       # What read queue length does an incoming req see (Count)
board.memory.mem_ctrl.rdQLenPdf::29                 0                       # What read queue length does an incoming req see (Count)
board.memory.mem_ctrl.rdQLenPdf::30                 0                       # What read queue length does an incoming req see (Count)
board.memory.mem_ctrl.rdQLenPdf::31                 0                       # What read queue length does an incoming req see (Count)
board.memory.mem_ctrl.wrQLenPdf::0                  1                       # What write queue length does an incoming req see (Count)
board.memory.mem_ctrl.wrQLenPdf::1                  1                       # What write queue length does an incoming req see (Count)
board.memory.mem_ctrl.wrQLenPdf::2                  1                       # What write queue length does an incoming req see (Count)
board.memory.mem_ctrl.wrQLenPdf::3                  1                       # What write queue length does an incoming req see (Count)
board.memory.mem_ctrl.wrQLenPdf::4                  1                       # What write queue length does an incoming req see (Count)
board.memory.mem_ctrl.wrQLenPdf::5                  1                       # What write queue length does an incoming req see (Count)
board.memory.mem_ctrl.wrQLenPdf::6                  1                       # What write queue length does an incoming req see (Count)
board.memory.mem_ctrl.wrQLenPdf::7                  1                       # What write queue length does an incoming req see (Count)
board.memory.mem_ctrl.wrQLenPdf::8                  1                       # What write queue length does an incoming req see (Count)
board.memory.mem_ctrl.wrQLenPdf::9                  1                       # What write queue length does an incoming req see (Count)
board.memory.mem_ctrl.wrQLenPdf::10                 1                       # What write queue length does an incoming req see (Count)
board.memory.mem_ctrl.wrQLenPdf::11                 1                       # What write queue length does an incoming req see (Count)
board.memory.mem_ctrl.wrQLenPdf::12                 1                       # What write queue length does an incoming req see (Count)
board.memory.mem_ctrl.wrQLenPdf::13                 1                       # What write queue length does an incoming req see (Count)
board.memory.mem_ctrl.wrQLenPdf::14                 1                       # What write queue length does an incoming req see (Count)
board.memory.mem_ctrl.wrQLenPdf::15                 3                       # What write queue length does an incoming req see (Count)
board.memory.mem_ctrl.wrQLenPdf::16                 3                       # What write queue length does an incoming req see (Count)
board.memory.mem_ctrl.wrQLenPdf::17               176                       # What write queue length does an incoming req see (Count)
board.memory.mem_ctrl.wrQLenPdf::18               184                       # What write queue length does an incoming req see (Count)
board.memory.mem_ctrl.wrQLenPdf::19               223                       # What write queue length does an incoming req see (Count)
board.memory.mem_ctrl.wrQLenPdf::20               224                       # What write queue length does an incoming req see (Count)
board.memory.mem_ctrl.wrQLenPdf::21               235                       # What write queue length does an incoming req see (Count)
board.memory.mem_ctrl.wrQLenPdf::22               245                       # What write queue length does an incoming req see (Count)
board.memory.mem_ctrl.wrQLenPdf::23               224                       # What write queue length does an incoming req see (Count)
board.memory.mem_ctrl.wrQLenPdf::24               225                       # What write queue length does an incoming req see (Count)
board.memory.mem_ctrl.wrQLenPdf::25               242                       # What write queue length does an incoming req see (Count)
board.memory.mem_ctrl.wrQLenPdf::26               234                       # What write queue length does an incoming req see (Count)
board.memory.mem_ctrl.wrQLenPdf::27               224                       # What write queue length does an incoming req see (Count)
board.memory.mem_ctrl.wrQLenPdf::28               230                       # What write queue length does an incoming req see (Count)
board.memory.mem_ctrl.wrQLenPdf::29               223                       # What write queue length does an incoming req see (Count)
board.memory.mem_ctrl.wrQLenPdf::30               222                       # What write queue length does an incoming req see (Count)
board.memory.mem_ctrl.wrQLenPdf::31               223                       # What write queue length does an incoming req see (Count)
board.memory.mem_ctrl.wrQLenPdf::32               222                       # What write queue length does an incoming req see (Count)
board.memory.mem_ctrl.wrQLenPdf::33                 1                       # What write queue length does an incoming req see (Count)
board.memory.mem_ctrl.wrQLenPdf::34                 0                       # What write queue length does an incoming req see (Count)
board.memory.mem_ctrl.wrQLenPdf::35                 0                       # What write queue length does an incoming req see (Count)
board.memory.mem_ctrl.wrQLenPdf::36                 0                       # What write queue length does an incoming req see (Count)
board.memory.mem_ctrl.wrQLenPdf::37                 0                       # What write queue length does an incoming req see (Count)
board.memory.mem_ctrl.wrQLenPdf::38                 0                       # What write queue length does an incoming req see (Count)
board.memory.mem_ctrl.wrQLenPdf::39                 0                       # What write queue length does an incoming req see (Count)
board.memory.mem_ctrl.wrQLenPdf::40                 0                       # What write queue length does an incoming req see (Count)
board.memory.mem_ctrl.wrQLenPdf::41                 0                       # What write queue length does an incoming req see (Count)
board.memory.mem_ctrl.wrQLenPdf::42                 0                       # What write queue length does an incoming req see (Count)
board.memory.mem_ctrl.wrQLenPdf::43                 0                       # What write queue length does an incoming req see (Count)
board.memory.mem_ctrl.wrQLenPdf::44                 0                       # What write queue length does an incoming req see (Count)
board.memory.mem_ctrl.wrQLenPdf::45                 0                       # What write queue length does an incoming req see (Count)
board.memory.mem_ctrl.wrQLenPdf::46                 0                       # What write queue length does an incoming req see (Count)
board.memory.mem_ctrl.wrQLenPdf::47                 0                       # What write queue length does an incoming req see (Count)
board.memory.mem_ctrl.wrQLenPdf::48                 0                       # What write queue length does an incoming req see (Count)
board.memory.mem_ctrl.wrQLenPdf::49                 0                       # What write queue length does an incoming req see (Count)
board.memory.mem_ctrl.wrQLenPdf::50                 0                       # What write queue length does an incoming req see (Count)
board.memory.mem_ctrl.wrQLenPdf::51                 0                       # What write queue length does an incoming req see (Count)
board.memory.mem_ctrl.wrQLenPdf::52                 0                       # What write queue length does an incoming req see (Count)
board.memory.mem_ctrl.wrQLenPdf::53                 0                       # What write queue length does an incoming req see (Count)
board.memory.mem_ctrl.wrQLenPdf::54                 0                       # What write queue length does an incoming req see (Count)
board.memory.mem_ctrl.wrQLenPdf::55                 0                       # What write queue length does an incoming req see (Count)
board.memory.mem_ctrl.wrQLenPdf::56                 0                       # What write queue length does an incoming req see (Count)
board.memory.mem_ctrl.wrQLenPdf::57                 0                       # What write queue length does an incoming req see (Count)
board.memory.mem_ctrl.wrQLenPdf::58                 0                       # What write queue length does an incoming req see (Count)
board.memory.mem_ctrl.wrQLenPdf::59                 0                       # What write queue length does an incoming req see (Count)
board.memory.mem_ctrl.wrQLenPdf::60                 0                       # What write queue length does an incoming req see (Count)
board.memory.mem_ctrl.wrQLenPdf::61                 0                       # What write queue length does an incoming req see (Count)
board.memory.mem_ctrl.wrQLenPdf::62                 0                       # What write queue length does an incoming req see (Count)
board.memory.mem_ctrl.wrQLenPdf::63                 0                       # What write queue length does an incoming req see (Count)
board.memory.mem_ctrl.rdPerTurnAround::samples          222                       # Reads before turning the bus around for writes (Count)
board.memory.mem_ctrl.rdPerTurnAround::mean  1196.045045                       # Reads before turning the bus around for writes (Count)
board.memory.mem_ctrl.rdPerTurnAround::stdev   256.548951                       # Reads before turning the bus around for writes (Count)
board.memory.mem_ctrl.rdPerTurnAround::0-63            1      0.45%      0.45% # Reads before turning the bus around for writes (Count)
board.memory.mem_ctrl.rdPerTurnAround::64-127            2      0.90%      1.35% # Reads before turning the bus around for writes (Count)
board.memory.mem_ctrl.rdPerTurnAround::128-191            2      0.90%      2.25% # Reads before turning the bus around for writes (Count)
board.memory.mem_ctrl.rdPerTurnAround::192-255            2      0.90%      3.15% # Reads before turning the bus around for writes (Count)
board.memory.mem_ctrl.rdPerTurnAround::384-447            1      0.45%      3.60% # Reads before turning the bus around for writes (Count)
board.memory.mem_ctrl.rdPerTurnAround::448-511            1      0.45%      4.05% # Reads before turning the bus around for writes (Count)
board.memory.mem_ctrl.rdPerTurnAround::512-575            1      0.45%      4.50% # Reads before turning the bus around for writes (Count)
board.memory.mem_ctrl.rdPerTurnAround::704-767            2      0.90%      5.41% # Reads before turning the bus around for writes (Count)
board.memory.mem_ctrl.rdPerTurnAround::768-831            1      0.45%      5.86% # Reads before turning the bus around for writes (Count)
board.memory.mem_ctrl.rdPerTurnAround::832-895            5      2.25%      8.11% # Reads before turning the bus around for writes (Count)
board.memory.mem_ctrl.rdPerTurnAround::1024-1087           15      6.76%     14.86% # Reads before turning the bus around for writes (Count)
board.memory.mem_ctrl.rdPerTurnAround::1088-1151           15      6.76%     21.62% # Reads before turning the bus around for writes (Count)
board.memory.mem_ctrl.rdPerTurnAround::1152-1215           24     10.81%     32.43% # Reads before turning the bus around for writes (Count)
board.memory.mem_ctrl.rdPerTurnAround::1216-1279          112     50.45%     82.88% # Reads before turning the bus around for writes (Count)
board.memory.mem_ctrl.rdPerTurnAround::1280-1343           10      4.50%     87.39% # Reads before turning the bus around for writes (Count)
board.memory.mem_ctrl.rdPerTurnAround::1408-1471           13      5.86%     93.24% # Reads before turning the bus around for writes (Count)
board.memory.mem_ctrl.rdPerTurnAround::1472-1535            7      3.15%     96.40% # Reads before turning the bus around for writes (Count)
board.memory.mem_ctrl.rdPerTurnAround::1600-1663            2      0.90%     97.30% # Reads before turning the bus around for writes (Count)
board.memory.mem_ctrl.rdPerTurnAround::1664-1727            6      2.70%    100.00% # Reads before turning the bus around for writes (Count)
board.memory.mem_ctrl.rdPerTurnAround::total          222                       # Reads before turning the bus around for writes (Count)
board.memory.mem_ctrl.wrPerTurnAround::samples          222                       # Writes before turning the bus around for reads (Count)
board.memory.mem_ctrl.wrPerTurnAround::mean    16.018018                       # Writes before turning the bus around for reads (Count)
board.memory.mem_ctrl.wrPerTurnAround::gmean    16.016987                       # Writes before turning the bus around for reads (Count)
board.memory.mem_ctrl.wrPerTurnAround::stdev     0.189402                       # Writes before turning the bus around for reads (Count)
board.memory.mem_ctrl.wrPerTurnAround::16          220     99.10%     99.10% # Writes before turning the bus around for reads (Count)
board.memory.mem_ctrl.wrPerTurnAround::18            2      0.90%    100.00% # Writes before turning the bus around for reads (Count)
board.memory.mem_ctrl.wrPerTurnAround::total          222                       # Writes before turning the bus around for reads (Count)
board.memory.mem_ctrl.bytesReadWrQ            5110784                       # Total number of bytes read from write queue (Byte)
board.memory.mem_ctrl.bytesReadSys            8547550                       # Total read bytes from the system interface side (Byte)
board.memory.mem_ctrl.bytesWrittenSys          834115                       # Total written bytes from the system interface side (Byte)
board.memory.mem_ctrl.avgRdBWSys         1741212322.40247464                       # Average system read bandwidth in Byte/s ((Byte/Second))
board.memory.mem_ctrl.avgWrBWSys         169916679.78552219                       # Average system write bandwidth in Byte/s ((Byte/Second))
board.memory.mem_ctrl.totGap               4908951600                       # Total gap between requests (Tick)
board.memory.mem_ctrl.avgGap                 10497.51                       # Average gap between requests ((Tick/Count))
board.memory.mem_ctrl.requestorReadBytes::processor.cores0.core.inst      7207488                       # Per-requestor bytes read from memory (Byte)
board.memory.mem_ctrl.requestorReadBytes::processor.cores0.core.data       998464                       # Per-requestor bytes read from memory (Byte)
board.memory.mem_ctrl.requestorWriteBytes::processor.cores0.core.data        26778                       # Per-requestor bytes write to memory (Byte)
board.memory.mem_ctrl.requestorReadRate::processor.cores0.core.inst 1468229717.190068244934                       # Per-requestor bytes read from memory rate ((Byte/Second))
board.memory.mem_ctrl.requestorReadRate::processor.cores0.core.data 203396039.833082526922                       # Per-requestor bytes read from memory rate ((Byte/Second))
board.memory.mem_ctrl.requestorWriteRate::processor.cores0.core.data 5454917.908557828516                       # Per-requestor bytes write to memory rate ((Byte/Second))
board.memory.mem_ctrl.requestorReadAccesses::processor.cores0.core.inst       112617                       # Per-requestor read serviced memory accesses (Count)
board.memory.mem_ctrl.requestorReadAccesses::processor.cores0.core.data       233112                       # Per-requestor read serviced memory accesses (Count)
board.memory.mem_ctrl.requestorWriteAccesses::processor.cores0.core.data       121901                       # Per-requestor write serviced memory accesses (Count)
board.memory.mem_ctrl.requestorReadTotalLat::processor.cores0.core.inst   2421004000                       # Per-requestor read total memory access latency (Tick)
board.memory.mem_ctrl.requestorReadTotalLat::processor.cores0.core.data   4532212950                       # Per-requestor read total memory access latency (Tick)
board.memory.mem_ctrl.requestorWriteTotalLat::processor.cores0.core.data 126508682250                       # Per-requestor write total memory access latency (Tick)
board.memory.mem_ctrl.requestorReadAvgLat::processor.cores0.core.inst     21497.68                       # Per-requestor read average memory access latency ((Tick/Count))
board.memory.mem_ctrl.requestorReadAvgLat::processor.cores0.core.data     19442.21                       # Per-requestor read average memory access latency ((Tick/Count))
board.memory.mem_ctrl.requestorWriteAvgLat::processor.cores0.core.data   1037798.56                       # Per-requestor write average memory access latency ((Tick/Count))
board.memory.mem_ctrl.dram.bytesRead::processor.cores0.core.inst      7207488                       # Number of bytes read from this memory (Byte)
board.memory.mem_ctrl.dram.bytesRead::processor.cores0.core.data      1340062                       # Number of bytes read from this memory (Byte)
board.memory.mem_ctrl.dram.bytesRead::total      8547550                       # Number of bytes read from this memory (Byte)
board.memory.mem_ctrl.dram.bytesInstRead::processor.cores0.core.inst      7207488                       # Number of instructions bytes read from this memory (Byte)
board.memory.mem_ctrl.dram.bytesInstRead::total      7207488                       # Number of instructions bytes read from this memory (Byte)
board.memory.mem_ctrl.dram.bytesWritten::processor.cores0.core.data       834115                       # Number of bytes written to this memory (Byte)
board.memory.mem_ctrl.dram.bytesWritten::total       834115                       # Number of bytes written to this memory (Byte)
board.memory.mem_ctrl.dram.numReads::processor.cores0.core.inst       112617                       # Number of read requests responded to by this memory (Count)
board.memory.mem_ctrl.dram.numReads::processor.cores0.core.data       233112                       # Number of read requests responded to by this memory (Count)
board.memory.mem_ctrl.dram.numReads::total       345729                       # Number of read requests responded to by this memory (Count)
board.memory.mem_ctrl.dram.numWrites::processor.cores0.core.data       121901                       # Number of write requests responded to by this memory (Count)
board.memory.mem_ctrl.dram.numWrites::total       121901                       # Number of write requests responded to by this memory (Count)
board.memory.mem_ctrl.dram.bwRead::processor.cores0.core.inst   1468229717                       # Total read bandwidth from this memory ((Byte/Second))
board.memory.mem_ctrl.dram.bwRead::processor.cores0.core.data    272982605                       # Total read bandwidth from this memory ((Byte/Second))
board.memory.mem_ctrl.dram.bwRead::total   1741212322                       # Total read bandwidth from this memory ((Byte/Second))
board.memory.mem_ctrl.dram.bwInstRead::processor.cores0.core.inst   1468229717                       # Instruction read bandwidth from this memory ((Byte/Second))
board.memory.mem_ctrl.dram.bwInstRead::total   1468229717                       # Instruction read bandwidth from this memory ((Byte/Second))
board.memory.mem_ctrl.dram.bwWrite::processor.cores0.core.data    169916680                       # Write bandwidth from this memory ((Byte/Second))
board.memory.mem_ctrl.dram.bwWrite::total    169916680                       # Write bandwidth from this memory ((Byte/Second))
board.memory.mem_ctrl.dram.bwTotal::processor.cores0.core.inst   1468229717                       # Total bandwidth to/from this memory ((Byte/Second))
board.memory.mem_ctrl.dram.bwTotal::processor.cores0.core.data    442899285                       # Total bandwidth to/from this memory ((Byte/Second))
board.memory.mem_ctrl.dram.bwTotal::total   1911129002                       # Total bandwidth to/from this memory ((Byte/Second))
board.memory.mem_ctrl.dram.readBursts          265873                       # Number of DRAM read bursts (Count)
board.memory.mem_ctrl.dram.writeBursts           3556                       # Number of DRAM write bursts (Count)
board.memory.mem_ctrl.dram.perBankRdBursts::0        30742                       # Per bank write bursts (Count)
board.memory.mem_ctrl.dram.perBankRdBursts::1          286                       # Per bank write bursts (Count)
board.memory.mem_ctrl.dram.perBankRdBursts::2          320                       # Per bank write bursts (Count)
board.memory.mem_ctrl.dram.perBankRdBursts::3          346                       # Per bank write bursts (Count)
board.memory.mem_ctrl.dram.perBankRdBursts::4        40471                       # Per bank write bursts (Count)
board.memory.mem_ctrl.dram.perBankRdBursts::5        80454                       # Per bank write bursts (Count)
board.memory.mem_ctrl.dram.perBankRdBursts::6        81641                       # Per bank write bursts (Count)
board.memory.mem_ctrl.dram.perBankRdBursts::7        20150                       # Per bank write bursts (Count)
board.memory.mem_ctrl.dram.perBankRdBursts::8          301                       # Per bank write bursts (Count)
board.memory.mem_ctrl.dram.perBankRdBursts::9            2                       # Per bank write bursts (Count)
board.memory.mem_ctrl.dram.perBankRdBursts::10            8                       # Per bank write bursts (Count)
board.memory.mem_ctrl.dram.perBankRdBursts::11          125                       # Per bank write bursts (Count)
board.memory.mem_ctrl.dram.perBankRdBursts::12        10723                       # Per bank write bursts (Count)
board.memory.mem_ctrl.dram.perBankRdBursts::13           99                       # Per bank write bursts (Count)
board.memory.mem_ctrl.dram.perBankRdBursts::14          205                       # Per bank write bursts (Count)
board.memory.mem_ctrl.dram.perBankRdBursts::15            0                       # Per bank write bursts (Count)
board.memory.mem_ctrl.dram.perBankWrBursts::0          128                       # Per bank write bursts (Count)
board.memory.mem_ctrl.dram.perBankWrBursts::1          139                       # Per bank write bursts (Count)
board.memory.mem_ctrl.dram.perBankWrBursts::2          186                       # Per bank write bursts (Count)
board.memory.mem_ctrl.dram.perBankWrBursts::3          156                       # Per bank write bursts (Count)
board.memory.mem_ctrl.dram.perBankWrBursts::4          316                       # Per bank write bursts (Count)
board.memory.mem_ctrl.dram.perBankWrBursts::5          142                       # Per bank write bursts (Count)
board.memory.mem_ctrl.dram.perBankWrBursts::6          771                       # Per bank write bursts (Count)
board.memory.mem_ctrl.dram.perBankWrBursts::7          159                       # Per bank write bursts (Count)
board.memory.mem_ctrl.dram.perBankWrBursts::8          229                       # Per bank write bursts (Count)
board.memory.mem_ctrl.dram.perBankWrBursts::9          236                       # Per bank write bursts (Count)
board.memory.mem_ctrl.dram.perBankWrBursts::10          257                       # Per bank write bursts (Count)
board.memory.mem_ctrl.dram.perBankWrBursts::11          263                       # Per bank write bursts (Count)
board.memory.mem_ctrl.dram.perBankWrBursts::12          178                       # Per bank write bursts (Count)
board.memory.mem_ctrl.dram.perBankWrBursts::13          136                       # Per bank write bursts (Count)
board.memory.mem_ctrl.dram.perBankWrBursts::14          129                       # Per bank write bursts (Count)
board.memory.mem_ctrl.dram.perBankWrBursts::15          131                       # Per bank write bursts (Count)
board.memory.mem_ctrl.dram.totQLat         1968098200                       # Total ticks spent queuing (Tick)
board.memory.mem_ctrl.dram.totBusLat       1329365000                       # Total ticks spent in databus transfers (Tick)
board.memory.mem_ctrl.dram.totMemAccLat    6953216950                       # Total ticks spent from burst creation until serviced by the DRAM (Tick)
board.memory.mem_ctrl.dram.avgQLat            7402.40                       # Average queueing delay per DRAM burst ((Tick/Count))
board.memory.mem_ctrl.dram.avgBusLat          5000.00                       # Average bus latency per DRAM burst ((Tick/Count))
board.memory.mem_ctrl.dram.avgMemAccLat      26152.40                       # Average memory access latency per DRAM burst ((Tick/Count))
board.memory.mem_ctrl.dram.readRowHits         247046                       # Number of row buffer hits during reads (Count)
board.memory.mem_ctrl.dram.writeRowHits          3232                       # Number of row buffer hits during writes (Count)
board.memory.mem_ctrl.dram.readRowHitRate        92.92                       # Row buffer hit rate for reads (Ratio)
board.memory.mem_ctrl.dram.writeRowHitRate        90.89                       # Row buffer hit rate for writes (Ratio)
board.memory.mem_ctrl.dram.bytesPerActivate::samples        19145                       # Bytes accessed per row activation (Byte)
board.memory.mem_ctrl.dram.bytesPerActivate::mean   900.479499                       # Bytes accessed per row activation (Byte)
board.memory.mem_ctrl.dram.bytesPerActivate::gmean   769.030757                       # Bytes accessed per row activation (Byte)
board.memory.mem_ctrl.dram.bytesPerActivate::stdev   299.101345                       # Bytes accessed per row activation (Byte)
board.memory.mem_ctrl.dram.bytesPerActivate::0-127         1024      5.35%      5.35% # Bytes accessed per row activation (Byte)
board.memory.mem_ctrl.dram.bytesPerActivate::128-255          903      4.72%     10.07% # Bytes accessed per row activation (Byte)
board.memory.mem_ctrl.dram.bytesPerActivate::256-383          502      2.62%     12.69% # Bytes accessed per row activation (Byte)
board.memory.mem_ctrl.dram.bytesPerActivate::384-511          177      0.92%     13.61% # Bytes accessed per row activation (Byte)
board.memory.mem_ctrl.dram.bytesPerActivate::512-639          102      0.53%     14.14% # Bytes accessed per row activation (Byte)
board.memory.mem_ctrl.dram.bytesPerActivate::640-767           60      0.31%     14.46% # Bytes accessed per row activation (Byte)
board.memory.mem_ctrl.dram.bytesPerActivate::768-895          170      0.89%     15.35% # Bytes accessed per row activation (Byte)
board.memory.mem_ctrl.dram.bytesPerActivate::896-1023           86      0.45%     15.80% # Bytes accessed per row activation (Byte)
board.memory.mem_ctrl.dram.bytesPerActivate::1024-1151        16121     84.20%    100.00% # Bytes accessed per row activation (Byte)
board.memory.mem_ctrl.dram.bytesPerActivate::total        19145                       # Bytes accessed per row activation (Byte)
board.memory.mem_ctrl.dram.bytesRead         17015872                       # Total bytes read (Byte)
board.memory.mem_ctrl.dram.bytesWritten        227584                       # Total bytes written (Byte)
board.memory.mem_ctrl.dram.avgRdBW        3466.285193                       # Average DRAM read bandwidth in MiBytes/s ((Byte/Second))
board.memory.mem_ctrl.dram.avgWrBW          46.360895                       # Average DRAM write bandwidth in MiBytes/s ((Byte/Second))
board.memory.mem_ctrl.dram.peakBW            12800.00                       # Theoretical peak bandwidth in MiByte/s ((Byte/Second))
board.memory.mem_ctrl.dram.busUtil              27.44                       # Data bus utilization in percentage (Ratio)
board.memory.mem_ctrl.dram.busUtilRead          27.08                       # Data bus utilization in percentage for reads (Ratio)
board.memory.mem_ctrl.dram.busUtilWrite          0.36                       # Data bus utilization in percentage for writes (Ratio)
board.memory.mem_ctrl.dram.pageHitRate          92.89                       # Row buffer hit rate, read and write combined (Ratio)
board.memory.mem_ctrl.dram.power_state.pwrStateResidencyTicks::UNDEFINED   4908964800                       # Cumulative time (in ticks) in various power states (Tick)
board.memory.mem_ctrl.dram.rank0.actEnergy    128998380                       # Energy for activate commands per rank (pJ) (Joule)
board.memory.mem_ctrl.dram.rank0.preEnergy     68545290                       # Energy for precharge commands per rank (pJ) (Joule)
board.memory.mem_ctrl.dram.rank0.readEnergy   1816487400                       # Energy for read commands per rank (pJ) (Joule)
board.memory.mem_ctrl.dram.rank0.writeEnergy     10424340                       # Energy for write commands per rank (pJ) (Joule)
board.memory.mem_ctrl.dram.rank0.refreshEnergy 387223200.000000                       # Energy for refresh commands per rank (pJ) (Joule)
board.memory.mem_ctrl.dram.rank0.actBackEnergy   2226091680                       # Energy for active background per rank (pJ) (Joule)
board.memory.mem_ctrl.dram.rank0.preBackEnergy     10439040                       # Energy for precharge background per rank (pJ) (Joule)
board.memory.mem_ctrl.dram.rank0.actPowerDownEnergy            0                       # Energy for active power-down per rank (pJ) (Joule)
board.memory.mem_ctrl.dram.rank0.prePowerDownEnergy            0                       # Energy for precharge power-down per rank (pJ) (Joule)
board.memory.mem_ctrl.dram.rank0.selfRefreshEnergy            0                       # Energy for self refresh per rank (pJ) (Joule)
board.memory.mem_ctrl.dram.rank0.totalEnergy   4648209330                       # Total energy per rank (pJ) (Joule)
board.memory.mem_ctrl.dram.rank0.averagePower   946.881780                       # Core power per rank (mW) (Watt)
board.memory.mem_ctrl.dram.rank0.totalIdleTime            0                       # Total Idle time Per DRAM Rank (Tick)
board.memory.mem_ctrl.dram.rank0.pwrStateTime::IDLE      4870750                       # Time in different power states (Tick)
board.memory.mem_ctrl.dram.rank0.pwrStateTime::REF    163800000                       # Time in different power states (Tick)
board.memory.mem_ctrl.dram.rank0.pwrStateTime::SREF            0                       # Time in different power states (Tick)
board.memory.mem_ctrl.dram.rank0.pwrStateTime::PRE_PDN            0                       # Time in different power states (Tick)
board.memory.mem_ctrl.dram.rank0.pwrStateTime::ACT   4740294050                       # Time in different power states (Tick)
board.memory.mem_ctrl.dram.rank0.pwrStateTime::ACT_PDN            0                       # Time in different power states (Tick)
board.memory.mem_ctrl.dram.rank1.actEnergy      7739760                       # Energy for activate commands per rank (pJ) (Joule)
board.memory.mem_ctrl.dram.rank1.preEnergy      4109985                       # Energy for precharge commands per rank (pJ) (Joule)
board.memory.mem_ctrl.dram.rank1.readEnergy     81845820                       # Energy for read commands per rank (pJ) (Joule)
board.memory.mem_ctrl.dram.rank1.writeEnergy      8137980                       # Energy for write commands per rank (pJ) (Joule)
board.memory.mem_ctrl.dram.rank1.refreshEnergy 387223200.000000                       # Energy for refresh commands per rank (pJ) (Joule)
board.memory.mem_ctrl.dram.rank1.actBackEnergy   2090174610                       # Energy for active background per rank (pJ) (Joule)
board.memory.mem_ctrl.dram.rank1.preBackEnergy    124895520                       # Energy for precharge background per rank (pJ) (Joule)
board.memory.mem_ctrl.dram.rank1.actPowerDownEnergy            0                       # Energy for active power-down per rank (pJ) (Joule)
board.memory.mem_ctrl.dram.rank1.prePowerDownEnergy            0                       # Energy for precharge power-down per rank (pJ) (Joule)
board.memory.mem_ctrl.dram.rank1.selfRefreshEnergy            0                       # Energy for self refresh per rank (pJ) (Joule)
board.memory.mem_ctrl.dram.rank1.totalEnergy   2704126875                       # Total energy per rank (pJ) (Joule)
board.memory.mem_ctrl.dram.rank1.averagePower   550.854811                       # Core power per rank (mW) (Watt)
board.memory.mem_ctrl.dram.rank1.totalIdleTime            0                       # Total Idle time Per DRAM Rank (Tick)
board.memory.mem_ctrl.dram.rank1.pwrStateTime::IDLE    305707500                       # Time in different power states (Tick)
board.memory.mem_ctrl.dram.rank1.pwrStateTime::REF    163800000                       # Time in different power states (Tick)
board.memory.mem_ctrl.dram.rank1.pwrStateTime::SREF            0                       # Time in different power states (Tick)
board.memory.mem_ctrl.dram.rank1.pwrStateTime::PRE_PDN            0                       # Time in different power states (Tick)
board.memory.mem_ctrl.dram.rank1.pwrStateTime::ACT   4439457300                       # Time in different power states (Tick)
board.memory.mem_ctrl.dram.rank1.pwrStateTime::ACT_PDN            0                       # Time in different power states (Tick)
board.memory.mem_ctrl.power_state.pwrStateResidencyTicks::UNDEFINED   4908964800                       # Cumulative time (in ticks) in various power states (Tick)
board.processor.cores0.core.numCycles        24544825                       # Number of cpu cycles simulated (Cycle)
board.processor.cores0.core.cpi             27.267816                       # CPI: cycles per instruction (core level) ((Cycle/Count))
board.processor.cores0.core.ipc              0.036673                       # IPC: instructions per cycle (core level) ((Count/Cycle))
board.processor.cores0.core.numWorkItemsStarted            0                       # Number of work items this cpu started (Count)
board.processor.cores0.core.numWorkItemsCompleted            0                       # Number of work items this cpu completed (Count)
board.processor.cores0.core.instsAdded        1500746                       # Number of instructions added to the IQ (excludes non-spec) (Count)
board.processor.cores0.core.nonSpecInstsAdded           35                       # Number of non-speculative instructions added to the IQ (Count)
board.processor.cores0.core.instsIssued       1548989                       # Number of instructions issued (Count)
board.processor.cores0.core.squashedInstsIssued           15                       # Number of squashed instructions issued (Count)
board.processor.cores0.core.squashedInstsExamined        11459                       # Number of squashed instructions iterated over during squash; mainly for profiling (Count)
board.processor.cores0.core.squashedOperandsExamined        21323                       # Number of squashed operands that are examined and possibly removed from graph (Count)
board.processor.cores0.core.squashedNonSpecRemoved           22                       # Number of squashed non-spec instructions that were removed (Count)
board.processor.cores0.core.numIssuedDist::samples      8879534                       # Number of insts issued each cycle (Count)
board.processor.cores0.core.numIssuedDist::mean     0.174445                       # Number of insts issued each cycle (Count)
board.processor.cores0.core.numIssuedDist::stdev     0.640952                       # Number of insts issued each cycle (Count)
board.processor.cores0.core.numIssuedDist::underflows            0      0.00%      0.00% # Number of insts issued each cycle (Count)
board.processor.cores0.core.numIssuedDist::0      8019417     90.31%     90.31% # Number of insts issued each cycle (Count)
board.processor.cores0.core.numIssuedDist::1       443675      5.00%     95.31% # Number of insts issued each cycle (Count)
board.processor.cores0.core.numIssuedDist::2       291949      3.29%     98.60% # Number of insts issued each cycle (Count)
board.processor.cores0.core.numIssuedDist::3        29795      0.34%     98.93% # Number of insts issued each cycle (Count)
board.processor.cores0.core.numIssuedDist::4        62910      0.71%     99.64% # Number of insts issued each cycle (Count)
board.processor.cores0.core.numIssuedDist::5        10860      0.12%     99.76% # Number of insts issued each cycle (Count)
board.processor.cores0.core.numIssuedDist::6        20505      0.23%    100.00% # Number of insts issued each cycle (Count)
board.processor.cores0.core.numIssuedDist::7          323      0.00%    100.00% # Number of insts issued each cycle (Count)
board.processor.cores0.core.numIssuedDist::8          100      0.00%    100.00% # Number of insts issued each cycle (Count)
board.processor.cores0.core.numIssuedDist::overflows            0      0.00%    100.00% # Number of insts issued each cycle (Count)
board.processor.cores0.core.numIssuedDist::min_value            0                       # Number of insts issued each cycle (Count)
board.processor.cores0.core.numIssuedDist::max_value            8                       # Number of insts issued each cycle (Count)
board.processor.cores0.core.numIssuedDist::total      8879534                       # Number of insts issued each cycle (Count)
board.processor.cores0.core.statFuBusy::No_OpClass            0      0.00%      0.00% # attempts to use FU when none available (Count)
board.processor.cores0.core.statFuBusy::IntAlu           33     28.45%     28.45% # attempts to use FU when none available (Count)
board.processor.cores0.core.statFuBusy::IntMult            0      0.00%     28.45% # attempts to use FU when none available (Count)
board.processor.cores0.core.statFuBusy::IntDiv            0      0.00%     28.45% # attempts to use FU when none available (Count)
board.processor.cores0.core.statFuBusy::FloatAdd            0      0.00%     28.45% # attempts to use FU when none available (Count)
board.processor.cores0.core.statFuBusy::FloatCmp            0      0.00%     28.45% # attempts to use FU when none available (Count)
board.processor.cores0.core.statFuBusy::FloatCvt            0      0.00%     28.45% # attempts to use FU when none available (Count)
board.processor.cores0.core.statFuBusy::FloatMult            0      0.00%     28.45% # attempts to use FU when none available (Count)
board.processor.cores0.core.statFuBusy::FloatMultAcc            0      0.00%     28.45% # attempts to use FU when none available (Count)
board.processor.cores0.core.statFuBusy::FloatDiv            0      0.00%     28.45% # attempts to use FU when none available (Count)
board.processor.cores0.core.statFuBusy::FloatMisc            0      0.00%     28.45% # attempts to use FU when none available (Count)
board.processor.cores0.core.statFuBusy::FloatSqrt            0      0.00%     28.45% # attempts to use FU when none available (Count)
board.processor.cores0.core.statFuBusy::SimdAdd            0      0.00%     28.45% # attempts to use FU when none available (Count)
board.processor.cores0.core.statFuBusy::SimdAddAcc            0      0.00%     28.45% # attempts to use FU when none available (Count)
board.processor.cores0.core.statFuBusy::SimdAlu            8      6.90%     35.34% # attempts to use FU when none available (Count)
board.processor.cores0.core.statFuBusy::SimdCmp            0      0.00%     35.34% # attempts to use FU when none available (Count)
board.processor.cores0.core.statFuBusy::SimdCvt            0      0.00%     35.34% # attempts to use FU when none available (Count)
board.processor.cores0.core.statFuBusy::SimdMisc            0      0.00%     35.34% # attempts to use FU when none available (Count)
board.processor.cores0.core.statFuBusy::SimdMult            0      0.00%     35.34% # attempts to use FU when none available (Count)
board.processor.cores0.core.statFuBusy::SimdMultAcc            0      0.00%     35.34% # attempts to use FU when none available (Count)
board.processor.cores0.core.statFuBusy::SimdMatMultAcc            0      0.00%     35.34% # attempts to use FU when none available (Count)
board.processor.cores0.core.statFuBusy::SimdShift            0      0.00%     35.34% # attempts to use FU when none available (Count)
board.processor.cores0.core.statFuBusy::SimdShiftAcc            0      0.00%     35.34% # attempts to use FU when none available (Count)
board.processor.cores0.core.statFuBusy::SimdDiv            0      0.00%     35.34% # attempts to use FU when none available (Count)
board.processor.cores0.core.statFuBusy::SimdSqrt            0      0.00%     35.34% # attempts to use FU when none available (Count)
board.processor.cores0.core.statFuBusy::SimdFloatAdd            0      0.00%     35.34% # attempts to use FU when none available (Count)
board.processor.cores0.core.statFuBusy::SimdFloatAlu            0      0.00%     35.34% # attempts to use FU when none available (Count)
board.processor.cores0.core.statFuBusy::SimdFloatCmp            0      0.00%     35.34% # attempts to use FU when none available (Count)
board.processor.cores0.core.statFuBusy::SimdFloatCvt            0      0.00%     35.34% # attempts to use FU when none available (Count)
board.processor.cores0.core.statFuBusy::SimdFloatDiv            0      0.00%     35.34% # attempts to use FU when none available (Count)
board.processor.cores0.core.statFuBusy::SimdFloatMisc            0      0.00%     35.34% # attempts to use FU when none available (Count)
board.processor.cores0.core.statFuBusy::SimdFloatMult            0      0.00%     35.34% # attempts to use FU when none available (Count)
board.processor.cores0.core.statFuBusy::SimdFloatMultAcc            0      0.00%     35.34% # attempts to use FU when none available (Count)
board.processor.cores0.core.statFuBusy::SimdFloatMatMultAcc            0      0.00%     35.34% # attempts to use FU when none available (Count)
board.processor.cores0.core.statFuBusy::SimdFloatSqrt            0      0.00%     35.34% # attempts to use FU when none available (Count)
board.processor.cores0.core.statFuBusy::SimdReduceAdd            0      0.00%     35.34% # attempts to use FU when none available (Count)
board.processor.cores0.core.statFuBusy::SimdReduceAlu            0      0.00%     35.34% # attempts to use FU when none available (Count)
board.processor.cores0.core.statFuBusy::SimdReduceCmp            0      0.00%     35.34% # attempts to use FU when none available (Count)
board.processor.cores0.core.statFuBusy::SimdFloatReduceAdd            0      0.00%     35.34% # attempts to use FU when none available (Count)
board.processor.cores0.core.statFuBusy::SimdFloatReduceCmp            0      0.00%     35.34% # attempts to use FU when none available (Count)
board.processor.cores0.core.statFuBusy::SimdAes            0      0.00%     35.34% # attempts to use FU when none available (Count)
board.processor.cores0.core.statFuBusy::SimdAesMix            0      0.00%     35.34% # attempts to use FU when none available (Count)
board.processor.cores0.core.statFuBusy::SimdSha1Hash            0      0.00%     35.34% # attempts to use FU when none available (Count)
board.processor.cores0.core.statFuBusy::SimdSha1Hash2            0      0.00%     35.34% # attempts to use FU when none available (Count)
board.processor.cores0.core.statFuBusy::SimdSha256Hash            0      0.00%     35.34% # attempts to use FU when none available (Count)
board.processor.cores0.core.statFuBusy::SimdSha256Hash2            0      0.00%     35.34% # attempts to use FU when none available (Count)
board.processor.cores0.core.statFuBusy::SimdShaSigma2            0      0.00%     35.34% # attempts to use FU when none available (Count)
board.processor.cores0.core.statFuBusy::SimdShaSigma3            0      0.00%     35.34% # attempts to use FU when none available (Count)
board.processor.cores0.core.statFuBusy::SimdPredAlu            0      0.00%     35.34% # attempts to use FU when none available (Count)
board.processor.cores0.core.statFuBusy::Matrix            0      0.00%     35.34% # attempts to use FU when none available (Count)
board.processor.cores0.core.statFuBusy::MatrixMov            0      0.00%     35.34% # attempts to use FU when none available (Count)
board.processor.cores0.core.statFuBusy::MatrixOP            0      0.00%     35.34% # attempts to use FU when none available (Count)
board.processor.cores0.core.statFuBusy::MemRead           22     18.97%     54.31% # attempts to use FU when none available (Count)
board.processor.cores0.core.statFuBusy::MemWrite           27     23.28%     77.59% # attempts to use FU when none available (Count)
board.processor.cores0.core.statFuBusy::FloatMemRead           18     15.52%     93.10% # attempts to use FU when none available (Count)
board.processor.cores0.core.statFuBusy::FloatMemWrite            8      6.90%    100.00% # attempts to use FU when none available (Count)
board.processor.cores0.core.statFuBusy::IprAccess            0      0.00%    100.00% # attempts to use FU when none available (Count)
board.processor.cores0.core.statFuBusy::InstPrefetch            0      0.00%    100.00% # attempts to use FU when none available (Count)
board.processor.cores0.core.statFuBusy::VectorUnitStrideLoad            0      0.00%    100.00% # attempts to use FU when none available (Count)
board.processor.cores0.core.statFuBusy::VectorUnitStrideStore            0      0.00%    100.00% # attempts to use FU when none available (Count)
board.processor.cores0.core.statFuBusy::VectorUnitStrideMaskLoad            0      0.00%    100.00% # attempts to use FU when none available (Count)
board.processor.cores0.core.statFuBusy::VectorUnitStrideMaskStore            0      0.00%    100.00% # attempts to use FU when none available (Count)
board.processor.cores0.core.statFuBusy::VectorStridedLoad            0      0.00%    100.00% # attempts to use FU when none available (Count)
board.processor.cores0.core.statFuBusy::VectorStridedStore            0      0.00%    100.00% # attempts to use FU when none available (Count)
board.processor.cores0.core.statFuBusy::VectorIndexedLoad            0      0.00%    100.00% # attempts to use FU when none available (Count)
board.processor.cores0.core.statFuBusy::VectorIndexedStore            0      0.00%    100.00% # attempts to use FU when none available (Count)
board.processor.cores0.core.statFuBusy::VectorUnitStrideFaultOnlyFirstLoad            0      0.00%    100.00% # attempts to use FU when none available (Count)
board.processor.cores0.core.statFuBusy::VectorWholeRegisterLoad            0      0.00%    100.00% # attempts to use FU when none available (Count)
board.processor.cores0.core.statFuBusy::VectorWholeRegisterStore            0      0.00%    100.00% # attempts to use FU when none available (Count)
board.processor.cores0.core.statFuBusy::VectorIntegerArith            0      0.00%    100.00% # attempts to use FU when none available (Count)
board.processor.cores0.core.statFuBusy::VectorFloatArith            0      0.00%    100.00% # attempts to use FU when none available (Count)
board.processor.cores0.core.statFuBusy::VectorFloatConvert            0      0.00%    100.00% # attempts to use FU when none available (Count)
board.processor.cores0.core.statFuBusy::VectorIntegerReduce            0      0.00%    100.00% # attempts to use FU when none available (Count)
board.processor.cores0.core.statFuBusy::VectorFloatReduce            0      0.00%    100.00% # attempts to use FU when none available (Count)
board.processor.cores0.core.statFuBusy::VectorMisc            0      0.00%    100.00% # attempts to use FU when none available (Count)
board.processor.cores0.core.statFuBusy::VectorIntegerExtension            0      0.00%    100.00% # attempts to use FU when none available (Count)
board.processor.cores0.core.statFuBusy::VectorConfig            0      0.00%    100.00% # attempts to use FU when none available (Count)
board.processor.cores0.core.statIssuedInstType_0::No_OpClass        30627      1.98%      1.98% # Number of instructions issued per FU type, per thread (Count)
board.processor.cores0.core.statIssuedInstType_0::IntAlu      1000669     64.60%     66.58% # Number of instructions issued per FU type, per thread (Count)
board.processor.cores0.core.statIssuedInstType_0::IntMult        10004      0.65%     67.22% # Number of instructions issued per FU type, per thread (Count)
board.processor.cores0.core.statIssuedInstType_0::IntDiv           21      0.00%     67.23% # Number of instructions issued per FU type, per thread (Count)
board.processor.cores0.core.statIssuedInstType_0::FloatAdd        20195      1.30%     68.53% # Number of instructions issued per FU type, per thread (Count)
board.processor.cores0.core.statIssuedInstType_0::FloatCmp            0      0.00%     68.53% # Number of instructions issued per FU type, per thread (Count)
board.processor.cores0.core.statIssuedInstType_0::FloatCvt            0      0.00%     68.53% # Number of instructions issued per FU type, per thread (Count)
board.processor.cores0.core.statIssuedInstType_0::FloatMult            0      0.00%     68.53% # Number of instructions issued per FU type, per thread (Count)
board.processor.cores0.core.statIssuedInstType_0::FloatMultAcc            0      0.00%     68.53% # Number of instructions issued per FU type, per thread (Count)
board.processor.cores0.core.statIssuedInstType_0::FloatDiv            0      0.00%     68.53% # Number of instructions issued per FU type, per thread (Count)
board.processor.cores0.core.statIssuedInstType_0::FloatMisc            0      0.00%     68.53% # Number of instructions issued per FU type, per thread (Count)
board.processor.cores0.core.statIssuedInstType_0::FloatSqrt            0      0.00%     68.53% # Number of instructions issued per FU type, per thread (Count)
board.processor.cores0.core.statIssuedInstType_0::SimdAdd            8      0.00%     68.53% # Number of instructions issued per FU type, per thread (Count)
board.processor.cores0.core.statIssuedInstType_0::SimdAddAcc            0      0.00%     68.53% # Number of instructions issued per FU type, per thread (Count)
board.processor.cores0.core.statIssuedInstType_0::SimdAlu          134      0.01%     68.54% # Number of instructions issued per FU type, per thread (Count)
board.processor.cores0.core.statIssuedInstType_0::SimdCmp            0      0.00%     68.54% # Number of instructions issued per FU type, per thread (Count)
board.processor.cores0.core.statIssuedInstType_0::SimdCvt           46      0.00%     68.54% # Number of instructions issued per FU type, per thread (Count)
board.processor.cores0.core.statIssuedInstType_0::SimdMisc        20239      1.31%     69.85% # Number of instructions issued per FU type, per thread (Count)
board.processor.cores0.core.statIssuedInstType_0::SimdMult            0      0.00%     69.85% # Number of instructions issued per FU type, per thread (Count)
board.processor.cores0.core.statIssuedInstType_0::SimdMultAcc            0      0.00%     69.85% # Number of instructions issued per FU type, per thread (Count)
board.processor.cores0.core.statIssuedInstType_0::SimdMatMultAcc            0      0.00%     69.85% # Number of instructions issued per FU type, per thread (Count)
board.processor.cores0.core.statIssuedInstType_0::SimdShift            0      0.00%     69.85% # Number of instructions issued per FU type, per thread (Count)
board.processor.cores0.core.statIssuedInstType_0::SimdShiftAcc            0      0.00%     69.85% # Number of instructions issued per FU type, per thread (Count)
board.processor.cores0.core.statIssuedInstType_0::SimdDiv            0      0.00%     69.85% # Number of instructions issued per FU type, per thread (Count)
board.processor.cores0.core.statIssuedInstType_0::SimdSqrt            0      0.00%     69.85% # Number of instructions issued per FU type, per thread (Count)
board.processor.cores0.core.statIssuedInstType_0::SimdFloatAdd        10000      0.65%     70.49% # Number of instructions issued per FU type, per thread (Count)
board.processor.cores0.core.statIssuedInstType_0::SimdFloatAlu            0      0.00%     70.49% # Number of instructions issued per FU type, per thread (Count)
board.processor.cores0.core.statIssuedInstType_0::SimdFloatCmp            0      0.00%     70.49% # Number of instructions issued per FU type, per thread (Count)
board.processor.cores0.core.statIssuedInstType_0::SimdFloatCvt            0      0.00%     70.49% # Number of instructions issued per FU type, per thread (Count)
board.processor.cores0.core.statIssuedInstType_0::SimdFloatDiv            0      0.00%     70.49% # Number of instructions issued per FU type, per thread (Count)
board.processor.cores0.core.statIssuedInstType_0::SimdFloatMisc            0      0.00%     70.49% # Number of instructions issued per FU type, per thread (Count)
board.processor.cores0.core.statIssuedInstType_0::SimdFloatMult            0      0.00%     70.49% # Number of instructions issued per FU type, per thread (Count)
board.processor.cores0.core.statIssuedInstType_0::SimdFloatMultAcc            0      0.00%     70.49% # Number of instructions issued per FU type, per thread (Count)
board.processor.cores0.core.statIssuedInstType_0::SimdFloatMatMultAcc            0      0.00%     70.49% # Number of instructions issued per FU type, per thread (Count)
board.processor.cores0.core.statIssuedInstType_0::SimdFloatSqrt            0      0.00%     70.49% # Number of instructions issued per FU type, per thread (Count)
board.processor.cores0.core.statIssuedInstType_0::SimdReduceAdd            0      0.00%     70.49% # Number of instructions issued per FU type, per thread (Count)
board.processor.cores0.core.statIssuedInstType_0::SimdReduceAlu            0      0.00%     70.49% # Number of instructions issued per FU type, per thread (Count)
board.processor.cores0.core.statIssuedInstType_0::SimdReduceCmp            0      0.00%     70.49% # Number of instructions issued per FU type, per thread (Count)
board.processor.cores0.core.statIssuedInstType_0::SimdFloatReduceAdd            0      0.00%     70.49% # Number of instructions issued per FU type, per thread (Count)
board.processor.cores0.core.statIssuedInstType_0::SimdFloatReduceCmp            0      0.00%     70.49% # Number of instructions issued per FU type, per thread (Count)
board.processor.cores0.core.statIssuedInstType_0::SimdAes            0      0.00%     70.49% # Number of instructions issued per FU type, per thread (Count)
board.processor.cores0.core.statIssuedInstType_0::SimdAesMix            0      0.00%     70.49% # Number of instructions issued per FU type, per thread (Count)
board.processor.cores0.core.statIssuedInstType_0::SimdSha1Hash            0      0.00%     70.49% # Number of instructions issued per FU type, per thread (Count)
board.processor.cores0.core.statIssuedInstType_0::SimdSha1Hash2            0      0.00%     70.49% # Number of instructions issued per FU type, per thread (Count)
board.processor.cores0.core.statIssuedInstType_0::SimdSha256Hash            0      0.00%     70.49% # Number of instructions issued per FU type, per thread (Count)
board.processor.cores0.core.statIssuedInstType_0::SimdSha256Hash2            0      0.00%     70.49% # Number of instructions issued per FU type, per thread (Count)
board.processor.cores0.core.statIssuedInstType_0::SimdShaSigma2            0      0.00%     70.49% # Number of instructions issued per FU type, per thread (Count)
board.processor.cores0.core.statIssuedInstType_0::SimdShaSigma3            0      0.00%     70.49% # Number of instructions issued per FU type, per thread (Count)
board.processor.cores0.core.statIssuedInstType_0::SimdPredAlu            0      0.00%     70.49% # Number of instructions issued per FU type, per thread (Count)
board.processor.cores0.core.statIssuedInstType_0::Matrix            0      0.00%     70.49% # Number of instructions issued per FU type, per thread (Count)
board.processor.cores0.core.statIssuedInstType_0::MatrixMov            0      0.00%     70.49% # Number of instructions issued per FU type, per thread (Count)
board.processor.cores0.core.statIssuedInstType_0::MatrixOP            0      0.00%     70.49% # Number of instructions issued per FU type, per thread (Count)
board.processor.cores0.core.statIssuedInstType_0::MemRead       314184     20.28%     90.78% # Number of instructions issued per FU type, per thread (Count)
board.processor.cores0.core.statIssuedInstType_0::MemWrite       111836      7.22%     98.00% # Number of instructions issued per FU type, per thread (Count)
board.processor.cores0.core.statIssuedInstType_0::FloatMemRead        20426      1.32%     99.32% # Number of instructions issued per FU type, per thread (Count)
board.processor.cores0.core.statIssuedInstType_0::FloatMemWrite        10600      0.68%    100.00% # Number of instructions issued per FU type, per thread (Count)
board.processor.cores0.core.statIssuedInstType_0::IprAccess            0      0.00%    100.00% # Number of instructions issued per FU type, per thread (Count)
board.processor.cores0.core.statIssuedInstType_0::InstPrefetch            0      0.00%    100.00% # Number of instructions issued per FU type, per thread (Count)
board.processor.cores0.core.statIssuedInstType_0::VectorUnitStrideLoad            0      0.00%    100.00% # Number of instructions issued per FU type, per thread (Count)
board.processor.cores0.core.statIssuedInstType_0::VectorUnitStrideStore            0      0.00%    100.00% # Number of instructions issued per FU type, per thread (Count)
board.processor.cores0.core.statIssuedInstType_0::VectorUnitStrideMaskLoad            0      0.00%    100.00% # Number of instructions issued per FU type, per thread (Count)
board.processor.cores0.core.statIssuedInstType_0::VectorUnitStrideMaskStore            0      0.00%    100.00% # Number of instructions issued per FU type, per thread (Count)
board.processor.cores0.core.statIssuedInstType_0::VectorStridedLoad            0      0.00%    100.00% # Number of instructions issued per FU type, per thread (Count)
board.processor.cores0.core.statIssuedInstType_0::VectorStridedStore            0      0.00%    100.00% # Number of instructions issued per FU type, per thread (Count)
board.processor.cores0.core.statIssuedInstType_0::VectorIndexedLoad            0      0.00%    100.00% # Number of instructions issued per FU type, per thread (Count)
board.processor.cores0.core.statIssuedInstType_0::VectorIndexedStore            0      0.00%    100.00% # Number of instructions issued per FU type, per thread (Count)
board.processor.cores0.core.statIssuedInstType_0::VectorUnitStrideFaultOnlyFirstLoad            0      0.00%    100.00% # Number of instructions issued per FU type, per thread (Count)
board.processor.cores0.core.statIssuedInstType_0::VectorWholeRegisterLoad            0      0.00%    100.00% # Number of instructions issued per FU type, per thread (Count)
board.processor.cores0.core.statIssuedInstType_0::VectorWholeRegisterStore            0      0.00%    100.00% # Number of instructions issued per FU type, per thread (Count)
board.processor.cores0.core.statIssuedInstType_0::VectorIntegerArith            0      0.00%    100.00% # Number of instructions issued per FU type, per thread (Count)
board.processor.cores0.core.statIssuedInstType_0::VectorFloatArith            0      0.00%    100.00% # Number of instructions issued per FU type, per thread (Count)
board.processor.cores0.core.statIssuedInstType_0::VectorFloatConvert            0      0.00%    100.00% # Number of instructions issued per FU type, per thread (Count)
board.processor.cores0.core.statIssuedInstType_0::VectorIntegerReduce            0      0.00%    100.00% # Number of instructions issued per FU type, per thread (Count)
board.processor.cores0.core.statIssuedInstType_0::VectorFloatReduce            0      0.00%    100.00% # Number of instructions issued per FU type, per thread (Count)
board.processor.cores0.core.statIssuedInstType_0::VectorMisc            0      0.00%    100.00% # Number of instructions issued per FU type, per thread (Count)
board.processor.cores0.core.statIssuedInstType_0::VectorIntegerExtension            0      0.00%    100.00% # Number of instructions issued per FU type, per thread (Count)
board.processor.cores0.core.statIssuedInstType_0::VectorConfig            0      0.00%    100.00% # Number of instructions issued per FU type, per thread (Count)
board.processor.cores0.core.statIssuedInstType_0::total      1548989                       # Number of instructions issued per FU type, per thread (Count)
board.processor.cores0.core.issueRate        0.063109                       # Inst issue rate ((Count/Cycle))
board.processor.cores0.core.fuBusy                116                       # FU busy when requested (Count)
board.processor.cores0.core.fuBusyRate       0.000075                       # FU busy rate (busy events/executed inst) ((Count/Count))
board.processor.cores0.core.intInstQueueReads     11813985                       # Number of integer instruction queue reads (Count)
board.processor.cores0.core.intInstQueueWrites      1430362                       # Number of integer instruction queue writes (Count)
board.processor.cores0.core.intInstQueueWakeupAccesses      1414509                       # Number of integer instruction queue wakeup accesses (Count)
board.processor.cores0.core.fpInstQueueReads       163658                       # Number of floating instruction queue reads (Count)
board.processor.cores0.core.fpInstQueueWrites        81900                       # Number of floating instruction queue writes (Count)
board.processor.cores0.core.fpInstQueueWakeupAccesses        81506                       # Number of floating instruction queue wakeup accesses (Count)
board.processor.cores0.core.vecInstQueueReads            0                       # Number of vector instruction queue reads (Count)
board.processor.cores0.core.vecInstQueueWrites            0                       # Number of vector instruction queue writes (Count)
board.processor.cores0.core.vecInstQueueWakeupAccesses            0                       # Number of vector instruction queue wakeup accesses (Count)
board.processor.cores0.core.intAluAccesses      1436632                       # Number of integer alu accesses (Count)
board.processor.cores0.core.fpAluAccesses        81846                       # Number of floating point alu accesses (Count)
board.processor.cores0.core.vecAluAccesses            0                       # Number of vector alu accesses (Count)
board.processor.cores0.core.numSquashedInsts          135                       # Number of squashed instructions skipped in execute (Count)
board.processor.cores0.core.numSwp                  0                       # Number of swp insts executed (Count)
board.processor.cores0.core.timesIdled         336631                       # Number of times that the entire CPU went into an idle state and unscheduled itself (Count)
board.processor.cores0.core.idleCycles       15665291                       # Total number of cycles that the CPU has spent unscheduled due to idling (Cycle)
board.processor.cores0.core.MemDepUnit__0.insertedLoads       283606                       # Number of loads inserted to the mem dependence unit. (Count)
board.processor.cores0.core.MemDepUnit__0.insertedStores       122906                       # Number of stores inserted to the mem dependence unit. (Count)
board.processor.cores0.core.MemDepUnit__0.conflictingLoads        50186                       # Number of conflicting loads. (Count)
board.processor.cores0.core.MemDepUnit__0.conflictingStores        10114                       # Number of conflicting stores. (Count)
board.processor.cores0.core.MemDepUnit__1.insertedLoads            0                       # Number of loads inserted to the mem dependence unit. (Count)
[...]
board.processor.cores1.core.commitStats0.committedInstType::SimdDiv            0                       # Class of committed instruction. (Count)
board.processor.cores1.core.commitStats0.committedInstType::SimdSqrt            0                       # Class of committed instruction. (Count)
board.processor.cores1.core.commitStats0.committedInstType::SimdFloatAdd            0                       # Class of committed instruction. (Count)
board.processor.cores1.core.commitStats0.committedInstType::SimdFloatAlu            0                       # Class of committed instruction. (Count)
board.processor.cores1.core.commitStats0.committedInstType::SimdFloatCmp            0                       # Class of committed instruction. (Count)
board.processor.cores1.core.commitStats0.committedInstType::SimdFloatCvt            0                       # Class of committed instruction. (Count)
board.processor.cores1.core.commitStats0.committedInstType::SimdFloatDiv            0                       # Class of committed instruction. (Count)
board.processor.cores1.core.commitStats0.committedInstType::SimdFloatMisc            0                       # Class of committed instruction. (Count)
board.processor.cores1.core.commitStats0.committedInstType::SimdFloatMult            0                       # Class of committed instruction. (Count)
board.processor.cores1.core.commitStats0.committedInstType::SimdFloatMultAcc            0                       # Class of committed instruction. (Count)
board.processor.cores1.core.commitStats0.committedInstType::SimdFloatMatMultAcc            0                       # Class of committed instruction. (Count)
board.processor.cores1.core.commitStats0.committedInstType::SimdFloatSqrt            0                       # Class of committed instruction. (Count)
board.processor.cores1.core.commitStats0.committedInstType::SimdReduceAdd            0                       # Class of committed instruction. (Count)
board.processor.cores1.core.commitStats0.committedInstType::SimdReduceAlu            0                       # Class of committed instruction. (Count)
board.processor.cores1.core.commitStats0.committedInstType::SimdReduceCmp            0                       # Class of committed instruction. (Count)
board.processor.cores1.core.commitStats0.committedInstType::SimdFloatReduceAdd            0                       # Class of committed instruction. (Count)
board.processor.cores1.core.commitStats0.committedInstType::SimdFloatReduceCmp            0                       # Class of committed instruction. (Count)
board.processor.cores1.core.commitStats0.committedInstType::SimdAes            0                       # Class of committed instruction. (Count)
board.processor.cores1.core.commitStats0.committedInstType::SimdAesMix            0                       # Class of committed instruction. (Count)
board.processor.cores1.core.commitStats0.committedInstType::SimdSha1Hash            0                       # Class of committed instruction. (Count)
board.processor.cores1.core.commitStats0.committedInstType::SimdSha1Hash2            0                       # Class of committed instruction. (Count)
board.processor.cores1.core.commitStats0.committedInstType::SimdSha256Hash            0                       # Class of committed instruction. (Count)
board.processor.cores1.core.commitStats0.committedInstType::SimdSha256Hash2            0                       # Class of committed instruction. (Count)
board.processor.cores1.core.commitStats0.committedInstType::SimdShaSigma2            0                       # Class of committed instruction. (Count)
board.processor.cores1.core.commitStats0.committedInstType::SimdShaSigma3            0                       # Class of committed instruction. (Count)
board.processor.cores1.core.commitStats0.committedInstType::SimdPredAlu            0                       # Class of committed instruction. (Count)
board.processor.cores1.core.commitStats0.committedInstType::Matrix            0                       # Class of committed instruction. (Count)
board.processor.cores1.core.commitStats0.committedInstType::MatrixMov            0                       # Class of committed instruction. (Count)
board.processor.cores1.core.commitStats0.committedInstType::MatrixOP            0                       # Class of committed instruction. (Count)
board.processor.cores1.core.commitStats0.committedInstType::MemRead            0                       # Class of committed instruction. (Count)
board.processor.cores1.core.commitStats0.committedInstType::MemWrite            0                       # Class of committed instruction. (Count)
board.processor.cores1.core.commitStats0.committedInstType::FloatMemRead            0                       # Class of committed instruction. (Count)
board.processor.cores1.core.commitStats0.committedInstType::FloatMemWrite            0                       # Class of committed instruction. (Count)
board.processor.cores1.core.commitStats0.committedInstType::IprAccess            0                       # Class of committed instruction. (Count)
board.processor.cores1.core.commitStats0.committedInstType::InstPrefetch            0                       # Class of committed instruction. (Count)
board.processor.cores1.core.commitStats0.committedInstType::VectorUnitStrideLoad            0                       # Class of committed instruction. (Count)
board.processor.cores1.core.commitStats0.committedInstType::VectorUnitStrideStore            0                       # Class of committed instruction. (Count)
board.processor.cores1.core.commitStats0.committedInstType::VectorUnitStrideMaskLoad            0                       # Class of committed instruction. (Count)
board.processor.cores1.core.commitStats0.committedInstType::VectorUnitStrideMaskStore            0                       # Class of committed instruction. (Count)
board.processor.cores1.core.commitStats0.committedInstType::VectorStridedLoad            0                       # Class of committed instruction. (Count)
board.processor.cores1.core.commitStats0.committedInstType::VectorStridedStore            0                       # Class of committed instruction. (Count)
board.processor.cores1.core.commitStats0.committedInstType::VectorIndexedLoad            0                       # Class of committed instruction. (Count)
board.processor.cores1.core.commitStats0.committedInstType::VectorIndexedStore            0                       # Class of committed instruction. (Count)
board.processor.cores1.core.commitStats0.committedInstType::VectorUnitStrideFaultOnlyFirstLoad            0                       # Class of committed instruction. (Count)
board.processor.cores1.core.commitStats0.committedInstType::VectorWholeRegisterLoad            0                       # Class of committed instruction. (Count)
board.processor.cores1.core.commitStats0.committedInstType::VectorWholeRegisterStore            0                       # Class of committed instruction. (Count)
board.processor.cores1.core.commitStats0.committedInstType::VectorIntegerArith            0                       # Class of committed instruction. (Count)
board.processor.cores1.core.commitStats0.committedInstType::VectorFloatArith            0                       # Class of committed instruction. (Count)
board.processor.cores1.core.commitStats0.committedInstType::VectorFloatConvert            0                       # Class of committed instruction. (Count)
board.processor.cores1.core.commitStats0.committedInstType::VectorIntegerReduce            0                       # Class of committed instruction. (Count)
board.processor.cores1.core.commitStats0.committedInstType::VectorFloatReduce            0                       # Class of committed instruction. (Count)
board.processor.cores1.core.commitStats0.committedInstType::VectorMisc            0                       # Class of committed instruction. (Count)
board.processor.cores1.core.commitStats0.committedInstType::VectorIntegerExtension            0                       # Class of committed instruction. (Count)
board.processor.cores1.core.commitStats0.committedInstType::VectorConfig            0                       # Class of committed instruction. (Count)
board.processor.cores1.core.commitStats0.committedInstType::total            0                       # Class of committed instruction. (Count)
board.processor.cores1.core.executeStats0.numInsts            0                       # Number of executed instructions (Count)
board.processor.cores1.core.executeStats0.numNop            0                       # Number of nop insts executed (Count)
board.processor.cores1.core.executeStats0.numBranches            0                       # Number of branches executed (Count)
board.processor.cores1.core.executeStats0.numLoadInsts            0                       # Number of load instructions executed (Count)
board.processor.cores1.core.executeStats0.numStoreInsts            0                       # Number of stores executed (Count)
board.processor.cores1.core.executeStats0.instRate          nan                       # Inst execution rate ((Count/Cycle))
board.processor.cores1.core.executeStats0.numFpRegWrites            0                       # Number of times the floating registers were written (Count)
board.processor.cores1.core.executeStats0.numMemRefs            0                       # Number of memory refs (Count)
board.processor.cores1.core.executeStats0.numVecAluAccesses            0                       # Number of vector alu accesses (Count)
board.processor.cores1.core.executeStats0.numDiscardedOps            0                       # Number of ops (including micro ops) which were discarded before commit (Count)
board.processor.cores1.core.fetch.nisnDist::samples            0                       # Number of instructions fetched each cycle (Total) (Count)
board.processor.cores1.core.fetch.nisnDist::mean          nan                       # Number of instructions fetched each cycle (Total) (Count)
board.processor.cores1.core.fetch.nisnDist::stdev          nan                       # Number of instructions fetched each cycle (Total) (Count)
board.processor.cores1.core.fetch.nisnDist::underflows            0                       # Number of instructions fetched each cycle (Total) (Count)
board.processor.cores1.core.fetch.nisnDist::0            0                       # Number of instructions fetched each cycle (Total) (Count)
board.processor.cores1.core.fetch.nisnDist::1            0                       # Number of instructions fetched each cycle (Total) (Count)
board.processor.cores1.core.fetch.nisnDist::2            0                       # Number of instructions fetched each cycle (Total) (Count)
board.processor.cores1.core.fetch.nisnDist::3            0                       # Number of instructions fetched each cycle (Total) (Count)
board.processor.cores1.core.fetch.nisnDist::4            0                       # Number of instructions fetched each cycle (Total) (Count)
board.processor.cores1.core.fetch.nisnDist::5            0                       # Number of instructions fetched each cycle (Total) (Count)
board.processor.cores1.core.fetch.nisnDist::6            0                       # Number of instructions fetched each cycle (Total) (Count)
board.processor.cores1.core.fetch.nisnDist::7            0                       # Number of instructions fetched each cycle (Total) (Count)
board.processor.cores1.core.fetch.nisnDist::8            0                       # Number of instructions fetched each cycle (Total) (Count)
board.processor.cores1.core.fetch.nisnDist::overflows            0                       # Number of instructions fetched each cycle (Total) (Count)
board.processor.cores1.core.fetch.nisnDist::min_value            0                       # Number of instructions fetched each cycle (Total) (Count)
board.processor.cores1.core.fetch.nisnDist::max_value            0                       # Number of instructions fetched each cycle (Total) (Count)
board.processor.cores1.core.fetch.nisnDist::total            0                       # Number of instructions fetched each cycle (Total) (Count)
board.processor.cores1.core.fetch.idleRate          nan                       # Ratio of cycles fetch was idle (Ratio)
board.processor.cores1.core.fetchStats0.numInsts            0                       # Number of instructions fetched (thread level) (Count)
board.processor.cores1.core.fetchStats0.numOps            0                       # Number of ops (including micro ops) fetched (thread level) (Count)
board.processor.cores1.core.fetchStats0.fetchRate          nan                       # Number of inst fetches per cycle ((Count/Cycle))
board.processor.cores1.core.fetchStats0.branchRate          nan                       # Number of branch fetches per cycle (Ratio)
board.processor.cores1.core.fetchStats0.numFetchSuspends            0                       # Number of times Execute suspended instruction fetching (Count)
board.processor.cores1.core.iew.idleCycles            0                       # Number of cycles IEW is idle (Cycle)
board.processor.cores1.core.iew.squashCycles            0                       # Number of cycles IEW is squashing (Cycle)
board.processor.cores1.core.iew.blockCycles            0                       # Number of cycles IEW is blocking (Cycle)
board.processor.cores1.core.iew.unblockCycles            0                       # Number of cycles IEW is unblocking (Cycle)
board.processor.cores1.core.iew.dispatchedInsts            0                       # Number of instructions dispatched to IQ (Count)
board.processor.cores1.core.iew.dispSquashedInsts            0                       # Number of squashed instructions skipped by dispatch (Count)
board.processor.cores1.core.iew.dispLoadInsts            0                       # Number of dispatched load instructions (Count)
board.processor.cores1.core.iew.dispStoreInsts            0                       # Number of dispatched store instructions (Count)
board.processor.cores1.core.iew.dispNonSpecInsts            0                       # Number of dispatched non-speculative instructions (Count)
board.processor.cores1.core.iew.iqFullEvents            0                       # Number of times the IQ has become full, causing a stall (Count)
board.processor.cores1.core.iew.lsqFullEvents            0                       # Number of times the LSQ has become full, causing a stall (Count)
board.processor.cores1.core.iew.memOrderViolationEvents            0                       # Number of memory order violations (Count)
board.processor.cores1.core.iew.predictedTakenIncorrect            0                       # Number of branches that were predicted taken incorrectly (Count)
board.processor.cores1.core.iew.predictedNotTakenIncorrect            0                       # Number of branches that were predicted not taken incorrectly (Count)
board.processor.cores1.core.iew.branchMispredicts            0                       # Number of branch mispredicts detected at execute (Count)
board.processor.cores1.core.iew.instsToCommit            0                       # Cumulative count of insts sent to commit (Count)
board.processor.cores1.core.iew.writebackCount            0                       # Cumulative count of insts written-back (Count)
board.processor.cores1.core.iew.producerInst            0                       # Number of instructions producing a value (Count)
board.processor.cores1.core.iew.consumerInst            0                       # Number of instructions consuming a value (Count)
board.processor.cores1.core.iew.wbRate            nan                       # Insts written-back per cycle ((Count/Cycle))
board.processor.cores1.core.iew.wbFanout          nan                       # Average fanout of values written-back ((Count/Count))
board.processor.cores1.core.interrupts.clk_domain.clock         3200                       # Clock period in ticks (Tick)
board.processor.cores1.core.lsq0.forwLoads            0                       # Number of loads that had data forwarded from stores (Count)
board.processor.cores1.core.lsq0.squashedLoads            0                       # Number of loads squashed (Count)
board.processor.cores1.core.lsq0.ignoredResponses            0                       # Number of memory responses ignored because the instruction is squashed (Count)
board.processor.cores1.core.lsq0.memOrderViolation            0                       # Number of memory ordering violations (Count)
board.processor.cores1.core.lsq0.squashedStores            0                       # Number of stores squashed (Count)
board.processor.cores1.core.lsq0.rescheduledLoads            0                       # Number of loads that were rescheduled (Count)
board.processor.cores1.core.lsq0.blockedByCache            0                       # Number of times an access to memory failed due to the cache being blocked (Count)
board.processor.cores1.core.mmu.dtb.rdAccesses            0                       # TLB accesses on read requests (Count)
board.processor.cores1.core.mmu.dtb.wrAccesses            0                       # TLB accesses on write requests (Count)
board.processor.cores1.core.mmu.dtb.rdMisses            0                       # TLB misses on read requests (Count)
board.processor.cores1.core.mmu.dtb.wrMisses            0                       # TLB misses on write requests (Count)
board.processor.cores1.core.mmu.dtb.walker.power_state.pwrStateResidencyTicks::UNDEFINED   5283518400                       # Cumulative time (in ticks) in various power states (Tick)
board.processor.cores1.core.mmu.itb.rdAccesses            0                       # TLB accesses on read requests (Count)
board.processor.cores1.core.mmu.itb.wrAccesses            0                       # TLB accesses on write requests (Count)
board.processor.cores1.core.mmu.itb.rdMisses            0                       # TLB misses on read requests (Count)
board.processor.cores1.core.mmu.itb.wrMisses            0                       # TLB misses on write requests (Count)
board.processor.cores1.core.mmu.itb.walker.power_state.pwrStateResidencyTicks::UNDEFINED   5283518400                       # Cumulative time (in ticks) in various power states (Tick)
board.processor.cores1.core.power_state.pwrStateResidencyTicks::ON   5283518400                       # Cumulative time (in ticks) in various power states (Tick)
board.processor.cores1.core.rename.serializeStallCycles            0                       # count of cycles rename stalled for serializing inst (Cycle)
board.processor.cores1.core.rename.serializing            0                       # count of serializing insts renamed (Count)
board.processor.cores1.core.rename.tempSerializing            0                       # count of temporary serializing insts renamed (Count)
board.processor.cores1.core.rename.skidInsts            0                       # count of insts added to the skid buffer (Count)
board.processor.cores1.core.rob.reads               0                       # The number of ROB reads (Count)
board.processor.cores1.core.rob.writes              0                       # The number of ROB writes (Count)
board.processor.cores1.core.thread_0.numInsts            0                       # Number of Instructions committed (Count)
board.processor.cores1.core.thread_0.numOps            0                       # Number of Ops committed (Count)
board.processor.cores1.core.thread_0.numMemRefs            0                       # Number of Memory References (Count)
board.workload.inst.arm                             0                       # number of arm instructions executed (Count)
board.workload.inst.quiesce                         0                       # number of quiesce instructions executed (Count)

---------- End Simulation Statistics   ----------
