
---------- Begin Simulation Statistics ----------
simSeconds                                   0.000500                       # Number of seconds simulated (Second)
simTicks                                    500027000                       # Number of ticks simulated (Tick)
finalTick                                   500027000                       # Number of ticks from beginning of simulation (restored from checkpoints and never reset) (Tick)
simFreq                                  1000000000000                       # The number of ticks per simulated second ((Tick/Second))
hostSeconds                                      0.50                       # Real time elapsed on the host (Second)
hostTickRate                                997779360                       # The number of ticks simulated per host second (ticks/s) ((Tick/Second))
hostMemory                                    1183496                       # Number of bytes of host memory used (Byte)
simInsts                                        82964                       # Number of instructions simulated (Count)
simOps                                         148983                       # Number of ops (including micro ops) simulated (Count)
hostInstRate                                   165518                       # Simulator instruction rate (inst/s) ((Count/Second))
hostOpRate                                     297227                       # Simulator op (including micro ops) rate (op/s) ((Count/Second))
board.cache_hierarchy.membus.transDist::ReadReq        31283                       # Transaction distribution (Count)
board.cache_hierarchy.membus.transDist::ReadResp        31281                       # Transaction distribution (Count)
board.cache_hierarchy.membus.transDist::WriteReq        12865                       # Transaction distribution (Count)
board.cache_hierarchy.membus.transDist::WriteResp        12865                       # Transaction distribution (Count)
board.cache_hierarchy.membus.transDist::LockedRMWReadReq            4                       # Transaction distribution (Count)
board.cache_hierarchy.membus.transDist::LockedRMWReadResp            4                       # Transaction distribution (Count)
board.cache_hierarchy.membus.transDist::LockedRMWWriteReq            4                       # Transaction distribution (Count)
board.cache_hierarchy.membus.transDist::LockedRMWWriteResp            4                       # Transaction distribution (Count)
board.cache_hierarchy.membus.pktCount_board.processor.cores0.core.icache_port::board.memory.mem_ctrl.port        22949                       # Packet count per connected requestor and responder (Count)
board.cache_hierarchy.membus.pktCount_board.processor.cores0.core.icache_port::total        22949                       # Packet count per connected requestor and responder (Count)
board.cache_hierarchy.membus.pktCount_board.processor.cores0.core.dcache_port::board.memory.mem_ctrl.port        65361                       # Packet count per connected requestor and responder (Count)
board.cache_hierarchy.membus.pktCount_board.processor.cores0.core.dcache_port::total        65361                       # Packet count per connected requestor and responder (Count)
board.cache_hierarchy.membus.pktCount::total        88310                       # Packet count per connected requestor and responder (Count)
board.cache_hierarchy.membus.pktSize_board.processor.cores0.core.icache_port::board.memory.mem_ctrl.port       734336                       # Cumulative packet size per connected requestor and responder (Byte)
board.cache_hierarchy.membus.pktSize_board.processor.cores0.core.icache_port::total       734336                       # Cumulative packet size per connected requestor and responder (Byte)
board.cache_hierarchy.membus.pktSize_board.processor.cores0.core.dcache_port::board.memory.mem_ctrl.port       210135                       # Cumulative packet size per connected requestor and responder (Byte)
board.cache_hierarchy.membus.pktSize_board.processor.cores0.core.dcache_port::total       210135                       # Cumulative packet size per connected requestor and responder (Byte)
board.cache_hierarchy.membus.pktSize::total       944471                       # Cumulative packet size per connected requestor and responder (Byte)
board.cache_hierarchy.membus.snoops                 0                       # Total snoops (Count)
board.cache_hierarchy.membus.snoopTraffic            0                       # Total snoop traffic (Byte)
board.cache_hierarchy.membus.snoopFanout::samples        44156                       # Request fanout histogram (Count)
board.cache_hierarchy.membus.snoopFanout::mean            0                       # Request fanout histogram (Count)
board.cache_hierarchy.membus.snoopFanout::stdev            0                       # Request fanout histogram (Count)
board.cache_hierarchy.membus.snoopFanout::underflows            0      0.00%      0.00% # Request fanout histogram (Count)
board.cache_hierarchy.membus.snoopFanout::0        44156    100.00%    100.00% # Request fanout histogram (Count)
board.cache_hierarchy.membus.snoopFanout::1            0      0.00%    100.00% # Request fanout histogram (Count)
board.cache_hierarchy.membus.snoopFanout::2            0      0.00%    100.00% # Request fanout histogram (Count)
board.cache_hierarchy.membus.snoopFanout::overflows            0      0.00%    100.00% # Request fanout histogram (Count)
board.cache_hierarchy.membus.snoopFanout::min_value            0                       # Request fanout histogram (Count)
board.cache_hierarchy.membus.snoopFanout::max_value            0                       # Request fanout histogram (Count)
board.cache_hierarchy.membus.snoopFanout::total        44156                       # Request fanout histogram (Count)
board.cache_hierarchy.membus.badaddr_responder.power_state.pwrStateResidencyTicks::UNDEFINED    500027000                       # Cumulative time (in ticks) in various power states (Tick)
board.cache_hierarchy.membus.power_state.pwrStateResidencyTicks::UNDEFINED    500027000                       # Cumulative time (in ticks) in various power states (Tick)
board.cache_hierarchy.membus.reqLayer4.occupancy     11405000                       # Layer occupancy (ticks) (Tick)
board.cache_hierarchy.membus.reqLayer4.utilization          0.0                       # Layer utilization (Ratio)
board.cache_hierarchy.membus.respLayer0.occupancy      5215950                       # Layer occupancy (ticks) (Tick)
board.cache_hierarchy.membus.respLayer0.utilization          0.0                       # Layer utilization (Ratio)
board.cache_hierarchy.membus.respLayer1.occupancy     11427850                       # Layer occupancy (ticks) (Tick)
board.cache_hierarchy.membus.respLayer1.utilization          0.0                       # Layer utilization (Ratio)
board.cache_hierarchy.membus.snoop_filter.totRequests            0                       # Total number of requests made to the snoop filter. (Count)
board.cache_hierarchy.membus.snoop_filter.hitSingleRequests            0                       # Number of requests hitting in the snoop filter with a single holder of the requested data. (Count)
board.cache_hierarchy.membus.snoop_filter.hitMultiRequests            0                       # Number of requests hitting in the snoop filter with multiple (>1) holders of the requested data. (Count)
board.cache_hierarchy.membus.snoop_filter.totSnoops            0                       # Total number of snoops made to the snoop filter. (Count)
board.cache_hierarchy.membus.snoop_filter.hitSingleSnoops            0                       # Number of snoops hitting in the snoop filter with a single holder of the requested data. (Count)
board.cache_hierarchy.membus.snoop_filter.hitMultiSnoops            0                       # Number of snoops hitting in the snoop filter with multiple (>1) holders of the requested data. (Count)
board.clk_domain.clock                            200                       # Clock period in ticks (Tick)
board.clk_domain.voltage_domain.voltage             1                       # Voltage in Volts (Volt)
board.memory.mem_ctrl.avgPriority_processor.cores0.core.inst::samples     11475.00                       # Average QoS priority value for accepted requests (Count)
board.memory.mem_ctrl.avgPriority_processor.cores0.core.data::samples     15011.00                       # Average QoS priority value for accepted requests (Count)
board.memory.mem_ctrl.priorityMinLatency 0.000000018750                       # per QoS priority minimum request to response latency (Second)
board.memory.mem_ctrl.priorityMaxLatency 0.000121125300                       # per QoS priority maximum request to response latency (Second)
board.memory.mem_ctrl.numReadWriteTurnArounds           31                       # Number of turnarounds from READ to WRITE (Count)
board.memory.mem_ctrl.numWriteReadTurnArounds           31                       # Number of turnarounds from WRITE to READ (Count)
board.memory.mem_ctrl.numStayReadState          63539                       # Number of times bus staying in READ state (Count)
board.memory.mem_ctrl.numStayWriteState           477                       # Number of times bus staying in WRITE state (Count)
board.memory.mem_ctrl.readReqs                  31287                       # Number of read requests accepted (Count)
board.memory.mem_ctrl.writeReqs                 12869                       # Number of write requests accepted (Count)
board.memory.mem_ctrl.readBursts                31287                       # Number of controller read bursts, including those serviced by the write queue (Count)
board.memory.mem_ctrl.writeBursts               12869                       # Number of controller write bursts, including those merged in the write queue (Count)
board.memory.mem_ctrl.servicedByWrQ              5330                       # Number of controller read bursts serviced by the write queue (Count)
board.memory.mem_ctrl.mergedWrBursts            12340                       # Number of controller write bursts merged with an existing one (Count)
board.memory.mem_ctrl.neitherReadNorWriteReqs            0                       # Number of requests that are neither read nor write (Count)
board.memory.mem_ctrl.avgRdQLen                  2.50                       # Average read queue length when enqueuing ((Count/Tick))
board.memory.mem_ctrl.avgWrQLen                 25.57                       # Average write queue length when enqueuing ((Count/Tick))
board.memory.mem_ctrl.numRdRetry                    0                       # Number of times read queue was full causing retry (Count)
board.memory.mem_ctrl.numWrRetry                    0                       # Number of times write queue was full causing retry (Count)
board.memory.mem_ctrl.readPktSize::0              273                       # Read request sizes (log2) (Count)
board.memory.mem_ctrl.readPktSize::1             6028                       # Read request sizes (log2) (Count)
board.memory.mem_ctrl.readPktSize::2              541                       # Read request sizes (log2) (Count)
board.memory.mem_ctrl.readPktSize::3            12970                       # Read request sizes (log2) (Count)
board.memory.mem_ctrl.readPktSize::4                0                       # Read request sizes (log2) (Count)
board.memory.mem_ctrl.readPktSize::5                0                       # Read request sizes (log2) (Count)
board.memory.mem_ctrl.readPktSize::6            11475                       # Read request sizes (log2) (Count)
board.memory.mem_ctrl.writePktSize::0              28                       # Write request sizes (log2) (Count)
board.memory.mem_ctrl.writePktSize::1            1003                       # Write request sizes (log2) (Count)
board.memory.mem_ctrl.writePktSize::2            1211                       # Write request sizes (log2) (Count)
board.memory.mem_ctrl.writePktSize::3           10627                       # Write request sizes (log2) (Count)
board.memory.mem_ctrl.writePktSize::4               0                       # Write request sizes (log2) (Count)
board.memory.mem_ctrl.writePktSize::5               0                       # Write request sizes (log2) (Count)
board.memory.mem_ctrl.writePktSize::6               0                       # Write request sizes (log2) (Count)
board.memory.mem_ctrl.rdQLenPdf::0               9696                       # What read queue length does an incoming req see (Count)
board.memory.mem_ctrl.rdQLenPdf::1               8083                       # What read queue length does an incoming req see (Count)
board.memory.mem_ctrl.rdQLenPdf::2               4565                       # What read queue length does an incoming req see (Count)
board.memory.mem_ctrl.rdQLenPdf::3               1695                       # What read queue length does an incoming req see (Count)
board.memory.mem_ctrl.rdQLenPdf::4               1316                       # What read queue length does an incoming req see (Count)
board.memory.mem_ctrl.rdQLenPdf::5                181                       # What read queue length does an incoming req see (Count)
board.memory.mem_ctrl.rdQLenPdf::6                 92                       # What read queue length does an incoming req see (Count)
board.memory.mem_ctrl.rdQLenPdf::7                 65                       # What read queue length does an incoming req see (Count)
board.memory.mem_ctrl.rdQLenPdf::8                 59                       # What read queue length does an incoming req see (Count)
board.memory.mem_ctrl.rdQLenPdf::9                 34                       # What read queue length does an incoming req see (Count)
board.memory.mem_ctrl.rdQLenPdf::10                37                       # What read queue length does an incoming req see (Count)
board.memory.mem_ctrl.rdQLenPdf::11                29                       # What read queue length does an incoming req see (Count)
board.memory.mem_ctrl.rdQLenPdf::12                19                       # What read queue length does an incoming req see (Count)
board.memory.mem_ctrl.rdQLenPdf::13                10                       # What read queue length does an incoming req see (Count)
board.memory.mem_ctrl.rdQLenPdf::14                11                       # What read queue length does an incoming req see (Count)
board.memory.mem_ctrl.rdQLenPdf::15                 7                       # What read queue length does an incoming req see (Count)
board.memory.mem_ctrl.rdQLenPdf::16                 5                       # What read queue length does an incoming req see (Count)
board.memory.mem_ctrl.rdQLenPdf::17                 7                       # What read queue length does an incoming req see (Count)
board.memory.mem_ctrl.rdQLenPdf::18                 5                       # What read queue length does an incoming req see (Count)
board.memory.mem_ctrl.rdQLenPdf::19                 7                       # What read queue length does an incoming req see (Count)
board.memory.mem_ctrl.rdQLenPdf::20                 6                       # What read queue length does an incoming req see (Count)
board.memory.mem_ctrl.rdQLenPdf::21                 6                       # What read queue length does an incoming req see (Count)
board.memory.mem_ctrl.rdQLenPdf::22                 5                       # What read queue length does an incoming req see (Count)
board.memory.mem_ctrl.rdQLenPdf::23                 7                       # What read queue length does an incoming req see (Count)
board.memory.mem_ctrl.rdQLenPdf::24                 3                       # What read queue length does an incoming req see (Count)
board.memory.mem_ctrl.rdQLenPdf::25                 3                       # What read queue length does an incoming req see (Count)
board.memory.mem_ctrl.rdQLenPdf::26                 2                       # What read queue length does an incoming req see (Count)
board.memory.mem_ctrl.rdQLenPdf::27                 2                       # What read queue length does an incoming req see (Count)
board.memory.mem_ctrl.rdQLenPdf::28                 0                       # What read queue length does an incoming req see (Count)
board.memory.mem_ctrl.rdQLenPdf::29                 0                       # What read queue length does an incoming req see (Count)
board.memory.mem_ctrl.rdQLenPdf::30                 0                       # What read queue length does an incoming req see (Count)
board.memory.mem_ctrl.rdQLenPdf::31                 0                       # What read queue length does an incoming req see (Count)
board.memory.mem_ctrl.wrQLenPdf::0                  1                       # What write queue length does an incoming req see (Count)
board.memory.mem_ctrl.wrQLenPdf::1                  1                       # What write queue length does an incoming req see (Count)
board.memory.mem_ctrl.wrQLenPdf::2                  1                       # What write queue length does an incoming req see (Count)
board.memory.mem_ctrl.wrQLenPdf::3                  1                       # What write queue length does an incoming req see (Count)
board.memory.mem_ctrl.wrQLenPdf::4                  1                       # What write queue length does an incoming req see (Count)
board.memory.mem_ctrl.wrQLenPdf::5                  1                       # What write queue length does an incoming req see (Count)
board.memory.mem_ctrl.wrQLenPdf::6                  1                       # What write queue length does an incoming req see (Count)
board.memory.mem_ctrl.wrQLenPdf::7                  1                       # What write queue length does an incoming req see (Count)
board.memory.mem_ctrl.wrQLenPdf::8                  1                       # What write queue length does an incoming req see (Count)
board.memory.mem_ctrl.wrQLenPdf::9                  1                       # What write queue length does an incoming req see (Count)
board.memory.mem_ctrl.wrQLenPdf::10                 1                       # What write queue length does an incoming req see (Count)
board.memory.mem_ctrl.wrQLenPdf::11                 1                       # What write queue length does an incoming req see (Count)
board.memory.mem_ctrl.wrQLenPdf::12                 1                       # What write queue length does an incoming req see (Count)
board.memory.mem_ctrl.wrQLenPdf::13                 1                       # What write queue length does an incoming req see (Count)
board.memory.mem_ctrl.wrQLenPdf::14                 1                       # What write queue length does an incoming req see (Count)
board.memory.mem_ctrl.wrQLenPdf::15                 4                       # What write queue length does an incoming req see (Count)
board.memory.mem_ctrl.wrQLenPdf::16                 4                       # What write queue length does an incoming req see (Count)
board.memory.mem_ctrl.wrQLenPdf::17                11                       # What write queue length does an incoming req see (Count)
board.memory.mem_ctrl.wrQLenPdf::18                31                       # What write queue length does an incoming req see (Count)
board.memory.mem_ctrl.wrQLenPdf::19                32                       # What write queue length does an incoming req see (Count)
board.memory.mem_ctrl.wrQLenPdf::20                34                       # What write queue length does an incoming req see (Count)
board.memory.mem_ctrl.wrQLenPdf::21                42                       # What write queue length does an incoming req see (Count)
board.memory.mem_ctrl.wrQLenPdf::22                33                       # What write queue length does an incoming req see (Count)
board.memory.mem_ctrl.wrQLenPdf::23                40                       # What write queue length does an incoming req see (Count)
board.memory.mem_ctrl.wrQLenPdf::24                32                       # What write queue length does an incoming req see (Count)
board.memory.mem_ctrl.wrQLenPdf::25                32                       # What write queue length does an incoming req see (Count)
board.memory.mem_ctrl.wrQLenPdf::26                32                       # What write queue length does an incoming req see (Count)
board.memory.mem_ctrl.wrQLenPdf::27                31                       # What write queue length does an incoming req see (Count)
board.memory.mem_ctrl.wrQLenPdf::28                32                       # What write queue length does an incoming req see (Count)
board.memory.mem_ctrl.wrQLenPdf::29                31                       # What write queue length does an incoming req see (Count)
board.memory.mem_ctrl.wrQLenPdf::30                31                       # What write queue length does an incoming req see (Count)
board.memory.mem_ctrl.wrQLenPdf::31                31                       # What write queue length does an incoming req see (Count)
board.memory.mem_ctrl.wrQLenPdf::32                31                       # What write queue length does an incoming req see (Count)
board.memory.mem_ctrl.wrQLenPdf::33                 0                       # What write queue length does an incoming req see (Count)
board.memory.mem_ctrl.wrQLenPdf::34                 0                       # What write queue length does an incoming req see (Count)
board.memory.mem_ctrl.wrQLenPdf::35                 0                       # What write queue length does an incoming req see (Count)
board.memory.mem_ctrl.wrQLenPdf::36                 0                       # What write queue length does an incoming req see (Count)
board.memory.mem_ctrl.wrQLenPdf::37                 0                       # What write queue length does an incoming req see (Count)
board.memory.mem_ctrl.wrQLenPdf::38                 0                       # What write queue length does an incoming req see (Count)
board.memory.mem_ctrl.wrQLenPdf::39                 0                       # What write queue length does an incoming req see (Count)
board.memory.mem_ctrl.wrQLenPdf::40                 0                       # What write queue length does an incoming req see (Count)
board.memory.mem_ctrl.wrQLenPdf::41                 0                       # What write queue length does an incoming req see (Count)
board.memory.mem_ctrl.wrQLenPdf::42                 0                       # What write queue length does an incoming req see (Count)
board.memory.mem_ctrl.wrQLenPdf::43                 0                       # What write queue length does an incoming req see (Count)
board.memory.mem_ctrl.wrQLenPdf::44                 0                       # What write queue length does an incoming req see (Count)
board.memory.mem_ctrl.wrQLenPdf::45                 0                       # What write queue length does an incoming req see (Count)
board.memory.mem_ctrl.wrQLenPdf::46                 0                       # What write queue length does an incoming req see (Count)
board.memory.mem_ctrl.wrQLenPdf::47                 0                       # What write queue length does an incoming req see (Count)
board.memory.mem_ctrl.wrQLenPdf::48                 0                       # What write queue length does an incoming req see (Count)
board.memory.mem_ctrl.wrQLenPdf::49                 0                       # What write queue length does an incoming req see (Count)
board.memory.mem_ctrl.wrQLenPdf::50                 0                       # What write queue length does an incoming req see (Count)
board.memory.mem_ctrl.wrQLenPdf::51                 0                       # What write queue length does an incoming req see (Count)
board.memory.mem_ctrl.wrQLenPdf::52                 0                       # What write queue length does an incoming req see (Count)
board.memory.mem_ctrl.wrQLenPdf::53                 0                       # What write queue length does an incoming req see (Count)
board.memory.mem_ctrl.wrQLenPdf::54                 0                       # What write queue length does an incoming req see (Count)
board.memory.mem_ctrl.wrQLenPdf::55                 0                       # What write queue length does an incoming req see (Count)
board.memory.mem_ctrl.wrQLenPdf::56                 0                       # What write queue length does an incoming req see (Count)
board.memory.mem_ctrl.wrQLenPdf::57                 0                       # What write queue length does an incoming req see (Count)
board.memory.mem_ctrl.wrQLenPdf::58                 0                       # What write queue length does an incoming req see (Count)
board.memory.mem_ctrl.wrQLenPdf::59                 0                       # What write queue length does an incoming req see (Count)
board.memory.mem_ctrl.wrQLenPdf::60                 0                       # What write queue length does an incoming req see (Count)
board.memory.mem_ctrl.wrQLenPdf::61                 0                       # What write queue length does an incoming req see (Count)
board.memory.mem_ctrl.wrQLenPdf::62                 0                       # What write queue length does an incoming req see (Count)
board.memory.mem_ctrl.wrQLenPdf::63                 0                       # What write queue length does an incoming req see (Count)
board.memory.mem_ctrl.rdPerTurnAround::samples           31                       # Reads before turning the bus around for writes (Count)
board.memory.mem_ctrl.rdPerTurnAround::mean   821.516129                       # Reads before turning the bus around for writes (Count)
board.memory.mem_ctrl.rdPerTurnAround::stdev   416.016175                       # Reads before turning the bus around for writes (Count)
board.memory.mem_ctrl.rdPerTurnAround::0-63            1      3.23%      3.23% # Reads before turning the bus around for writes (Count)
board.memory.mem_ctrl.rdPerTurnAround::64-127            1      3.23%      6.45% # Reads before turning the bus around for writes (Count)
board.memory.mem_ctrl.rdPerTurnAround::128-191            2      6.45%     12.90% # Reads before turning the bus around for writes (Count)
board.memory.mem_ctrl.rdPerTurnAround::192-255            2      6.45%     19.35% # Reads before turning the bus around for writes (Count)
board.memory.mem_ctrl.rdPerTurnAround::256-319            2      6.45%     25.81% # Reads before turning the bus around for writes (Count)
board.memory.mem_ctrl.rdPerTurnAround::576-639            1      3.23%     29.03% # Reads before turning the bus around for writes (Count)
board.memory.mem_ctrl.rdPerTurnAround::704-767            2      6.45%     35.48% # Reads before turning the bus around for writes (Count)
board.memory.mem_ctrl.rdPerTurnAround::768-831            1      3.23%     38.71% # Reads before turning the bus around for writes (Count)
board.memory.mem_ctrl.rdPerTurnAround::832-895            1      3.23%     41.94% # Reads before turning the bus around for writes (Count)
board.memory.mem_ctrl.rdPerTurnAround::1024-1087            5     16.13%     58.06% # Reads before turning the bus around for writes (Count)
board.memory.mem_ctrl.rdPerTurnAround::1088-1151            8     25.81%     83.87% # Reads before turning the bus around for writes (Count)
board.memory.mem_ctrl.rdPerTurnAround::1152-1215            3      9.68%     93.55% # Reads before turning the bus around for writes (Count)
board.memory.mem_ctrl.rdPerTurnAround::1216-1279            2      6.45%    100.00% # Reads before turning the bus around for writes (Count)
board.memory.mem_ctrl.rdPerTurnAround::total           31                       # Reads before turning the bus around for writes (Count)
board.memory.mem_ctrl.wrPerTurnAround::samples           31                       # Writes before turning the bus around for reads (Count)
board.memory.mem_ctrl.wrPerTurnAround::mean    16.225806                       # Writes before turning the bus around for reads (Count)
board.memory.mem_ctrl.wrPerTurnAround::gmean    16.211667                       # Writes before turning the bus around for reads (Count)
board.memory.mem_ctrl.wrPerTurnAround::stdev     0.716923                       # Writes before turning the bus around for reads (Count)
board.memory.mem_ctrl.wrPerTurnAround::16           28     90.32%     90.32% # Writes before turning the bus around for reads (Count)
board.memory.mem_ctrl.wrPerTurnAround::18            2      6.45%     96.77% # Writes before turning the bus around for reads (Count)
board.memory.mem_ctrl.wrPerTurnAround::19            1      3.23%    100.00% # Writes before turning the bus around for reads (Count)
board.memory.mem_ctrl.wrPerTurnAround::total           31                       # Writes before turning the bus around for reads (Count)
board.memory.mem_ctrl.bytesReadWrQ             341120                       # Total number of bytes read from write queue (Byte)
board.memory.mem_ctrl.bytesReadSys             852649                       # Total read bytes from the system interface side (Byte)
board.memory.mem_ctrl.bytesWrittenSys           91894                       # Total written bytes from the system interface side (Byte)
board.memory.mem_ctrl.avgRdBWSys         1705205918.88038039                       # Average system read bandwidth in Byte/s ((Byte/Second))
board.memory.mem_ctrl.avgWrBWSys         183778075.98389688                       # Average system write bandwidth in Byte/s ((Byte/Second))
board.memory.mem_ctrl.totGap                500026200                       # Total gap between requests (Tick)
board.memory.mem_ctrl.avgGap                 11324.08                       # Average gap between requests ((Tick/Count))
board.memory.mem_ctrl.requestorReadBytes::processor.cores0.core.inst       734400                       # Per-requestor bytes read from memory (Byte)
board.memory.mem_ctrl.requestorReadBytes::processor.cores0.core.data        93523                       # Per-requestor bytes read from memory (Byte)
board.memory.mem_ctrl.requestorWriteBytes::processor.cores0.core.data         3807                       # Per-requestor bytes write to memory (Byte)
board.memory.mem_ctrl.requestorReadRate::processor.cores0.core.inst 1468720689.082789421082                       # Per-requestor bytes read from memory rate ((Byte/Second))
board.memory.mem_ctrl.requestorReadRate::processor.cores0.core.data 187035900.061396688223                       # Per-requestor bytes read from memory rate ((Byte/Second))
board.memory.mem_ctrl.requestorWriteRate::processor.cores0.core.data 7613588.866201224737                       # Per-requestor bytes write to memory rate ((Byte/Second))
board.memory.mem_ctrl.requestorReadAccesses::processor.cores0.core.inst        11475                       # Per-requestor read serviced memory accesses (Count)
board.memory.mem_ctrl.requestorReadAccesses::processor.cores0.core.data        19812                       # Per-requestor read serviced memory accesses (Count)
board.memory.mem_ctrl.requestorWriteAccesses::processor.cores0.core.data        12869                       # Per-requestor write serviced memory accesses (Count)
board.memory.mem_ctrl.requestorReadTotalLat::processor.cores0.core.inst    263437000                       # Per-requestor read total memory access latency (Tick)
board.memory.mem_ctrl.requestorReadTotalLat::processor.cores0.core.data    484438300                       # Per-requestor read total memory access latency (Tick)
board.memory.mem_ctrl.requestorWriteTotalLat::processor.cores0.core.data  12169774400                       # Per-requestor write total memory access latency (Tick)
board.memory.mem_ctrl.requestorReadAvgLat::processor.cores0.core.inst     22957.47                       # Per-requestor read average memory access latency ((Tick/Count))
board.memory.mem_ctrl.requestorReadAvgLat::processor.cores0.core.data     24451.76                       # Per-requestor read average memory access latency ((Tick/Count))
board.memory.mem_ctrl.requestorWriteAvgLat::processor.cores0.core.data    945665.89                       # Per-requestor write average memory access latency ((Tick/Count))
board.memory.mem_ctrl.dram.bytesRead::processor.cores0.core.inst       734336                       # Number of bytes read from this memory (Byte)
board.memory.mem_ctrl.dram.bytesRead::processor.cores0.core.data       118241                       # Number of bytes read from this memory (Byte)
board.memory.mem_ctrl.dram.bytesRead::total       852577                       # Number of bytes read from this memory (Byte)
board.memory.mem_ctrl.dram.bytesInstRead::processor.cores0.core.inst       734336                       # Number of instructions bytes read from this memory (Byte)
board.memory.mem_ctrl.dram.bytesInstRead::total       734336                       # Number of instructions bytes read from this memory (Byte)
board.memory.mem_ctrl.dram.bytesWritten::processor.cores0.core.data        91894                       # Number of bytes written to this memory (Byte)
board.memory.mem_ctrl.dram.bytesWritten::total        91894                       # Number of bytes written to this memory (Byte)
board.memory.mem_ctrl.dram.numReads::processor.cores0.core.inst        11474                       # Number of read requests responded to by this memory (Count)
board.memory.mem_ctrl.dram.numReads::processor.cores0.core.data        19811                       # Number of read requests responded to by this memory (Count)
board.memory.mem_ctrl.dram.numReads::total        31285                       # Number of read requests responded to by this memory (Count)
board.memory.mem_ctrl.dram.numWrites::processor.cores0.core.data        12869                       # Number of write requests responded to by this memory (Count)
board.memory.mem_ctrl.dram.numWrites::total        12869                       # Number of write requests responded to by this memory (Count)
board.memory.mem_ctrl.dram.bwRead::processor.cores0.core.inst   1468592696                       # Total read bandwidth from this memory ((Byte/Second))
board.memory.mem_ctrl.dram.bwRead::processor.cores0.core.data    236469231                       # Total read bandwidth from this memory ((Byte/Second))
board.memory.mem_ctrl.dram.bwRead::total   1705061927                       # Total read bandwidth from this memory ((Byte/Second))
board.memory.mem_ctrl.dram.bwInstRead::processor.cores0.core.inst   1468592696                       # Instruction read bandwidth from this memory ((Byte/Second))
board.memory.mem_ctrl.dram.bwInstRead::total   1468592696                       # Instruction read bandwidth from this memory ((Byte/Second))
board.memory.mem_ctrl.dram.bwWrite::processor.cores0.core.data    183778076                       # Write bandwidth from this memory ((Byte/Second))
board.memory.mem_ctrl.dram.bwWrite::total    183778076                       # Write bandwidth from this memory ((Byte/Second))
board.memory.mem_ctrl.dram.bwTotal::processor.cores0.core.inst   1468592696                       # Total bandwidth to/from this memory ((Byte/Second))
board.memory.mem_ctrl.dram.bwTotal::processor.cores0.core.data    420247307                       # Total bandwidth to/from this memory ((Byte/Second))
board.memory.mem_ctrl.dram.bwTotal::total   1888840003                       # Total bandwidth to/from this memory ((Byte/Second))
board.memory.mem_ctrl.dram.readBursts           25957                       # Number of DRAM read bursts (Count)
board.memory.mem_ctrl.dram.writeBursts            503                       # Number of DRAM write bursts (Count)
board.memory.mem_ctrl.dram.perBankRdBursts::0         1595                       # Per bank write bursts (Count)
board.memory.mem_ctrl.dram.perBankRdBursts::1          293                       # Per bank write bursts (Count)
board.memory.mem_ctrl.dram.perBankRdBursts::2          324                       # Per bank write bursts (Count)
board.memory.mem_ctrl.dram.perBankRdBursts::3          346                       # Per bank write bursts (Count)
board.memory.mem_ctrl.dram.perBankRdBursts::4         4104                       # Per bank write bursts (Count)
board.memory.mem_ctrl.dram.perBankRdBursts::5         8458                       # Per bank write bursts (Count)
board.memory.mem_ctrl.dram.perBankRdBursts::6         6270                       # Per bank write bursts (Count)
board.memory.mem_ctrl.dram.perBankRdBursts::7         2127                       # Per bank write bursts (Count)
board.memory.mem_ctrl.dram.perBankRdBursts::8          290                       # Per bank write bursts (Count)
board.memory.mem_ctrl.dram.perBankRdBursts::9            2                       # Per bank write bursts (Count)
board.memory.mem_ctrl.dram.perBankRdBursts::10            8                       # Per bank write bursts (Count)
board.memory.mem_ctrl.dram.perBankRdBursts::11          108                       # Per bank write bursts (Count)
board.memory.mem_ctrl.dram.perBankRdBursts::12         1746                       # Per bank write bursts (Count)
board.memory.mem_ctrl.dram.perBankRdBursts::13           87                       # Per bank write bursts (Count)
board.memory.mem_ctrl.dram.perBankRdBursts::14          199                       # Per bank write bursts (Count)
board.memory.mem_ctrl.dram.perBankRdBursts::15            0                       # Per bank write bursts (Count)
board.memory.mem_ctrl.dram.perBankWrBursts::0            0                       # Per bank write bursts (Count)
board.memory.mem_ctrl.dram.perBankWrBursts::1            4                       # Per bank write bursts (Count)
board.memory.mem_ctrl.dram.perBankWrBursts::2           55                       # Per bank write bursts (Count)
board.memory.mem_ctrl.dram.perBankWrBursts::3           26                       # Per bank write bursts (Count)
board.memory.mem_ctrl.dram.perBankWrBursts::4           18                       # Per bank write bursts (Count)
board.memory.mem_ctrl.dram.perBankWrBursts::5            0                       # Per bank write bursts (Count)
board.memory.mem_ctrl.dram.perBankWrBursts::6          102                       # Per bank write bursts (Count)
board.memory.mem_ctrl.dram.perBankWrBursts::7           24                       # Per bank write bursts (Count)
board.memory.mem_ctrl.dram.perBankWrBursts::8           79                       # Per bank write bursts (Count)
board.memory.mem_ctrl.dram.perBankWrBursts::9           67                       # Per bank write bursts (Count)
board.memory.mem_ctrl.dram.perBankWrBursts::10          128                       # Per bank write bursts (Count)
board.memory.mem_ctrl.dram.perBankWrBursts::11            0                       # Per bank write bursts (Count)
board.memory.mem_ctrl.dram.perBankWrBursts::12            0                       # Per bank write bursts (Count)
board.memory.mem_ctrl.dram.perBankWrBursts::13            0                       # Per bank write bursts (Count)
board.memory.mem_ctrl.dram.perBankWrBursts::14            0                       # Per bank write bursts (Count)
board.memory.mem_ctrl.dram.perBankWrBursts::15            0                       # Per bank write bursts (Count)
board.memory.mem_ctrl.dram.totQLat          261181550                       # Total ticks spent queuing (Tick)
board.memory.mem_ctrl.dram.totBusLat        129785000                       # Total ticks spent in databus transfers (Tick)
board.memory.mem_ctrl.dram.totMemAccLat     747875300                       # Total ticks spent from burst creation until serviced by the DRAM (Tick)
board.memory.mem_ctrl.dram.avgQLat           10062.09                       # Average queueing delay per DRAM burst ((Tick/Count))
board.memory.mem_ctrl.dram.avgBusLat          5000.00                       # Average bus latency per DRAM burst ((Tick/Count))
board.memory.mem_ctrl.dram.avgMemAccLat      28812.09                       # Average memory access latency per DRAM burst ((Tick/Count))
board.memory.mem_ctrl.dram.readRowHits          23833                       # Number of row buffer hits during reads (Count)
board.memory.mem_ctrl.dram.writeRowHits           462                       # Number of row buffer hits during writes (Count)
board.memory.mem_ctrl.dram.readRowHitRate        91.82                       # Row buffer hit rate for reads (Ratio)
board.memory.mem_ctrl.dram.writeRowHitRate        91.85                       # Row buffer hit rate for writes (Ratio)
board.memory.mem_ctrl.dram.bytesPerActivate::samples         2159                       # Bytes accessed per row activation (Byte)
board.memory.mem_ctrl.dram.bytesPerActivate::mean   782.940250                       # Bytes accessed per row activation (Byte)
board.memory.mem_ctrl.dram.bytesPerActivate::gmean   617.060099                       # Bytes accessed per row activation (Byte)
board.memory.mem_ctrl.dram.bytesPerActivate::stdev   364.156669                       # Bytes accessed per row activation (Byte)
board.memory.mem_ctrl.dram.bytesPerActivate::0-127          127      5.88%      5.88% # Bytes accessed per row activation (Byte)
board.memory.mem_ctrl.dram.bytesPerActivate::128-255          220     10.19%     16.07% # Bytes accessed per row activation (Byte)
board.memory.mem_ctrl.dram.bytesPerActivate::256-383          148      6.86%     22.93% # Bytes accessed per row activation (Byte)
board.memory.mem_ctrl.dram.bytesPerActivate::384-511           74      3.43%     26.35% # Bytes accessed per row activation (Byte)
board.memory.mem_ctrl.dram.bytesPerActivate::512-639           54      2.50%     28.86% # Bytes accessed per row activation (Byte)
board.memory.mem_ctrl.dram.bytesPerActivate::640-767           21      0.97%     29.83% # Bytes accessed per row activation (Byte)
board.memory.mem_ctrl.dram.bytesPerActivate::768-895           54      2.50%     32.33% # Bytes accessed per row activation (Byte)
board.memory.mem_ctrl.dram.bytesPerActivate::896-1023           67      3.10%     35.43% # Bytes accessed per row activation (Byte)
board.memory.mem_ctrl.dram.bytesPerActivate::1024-1151         1394     64.57%    100.00% # Bytes accessed per row activation (Byte)
board.memory.mem_ctrl.dram.bytesPerActivate::total         2159                       # Bytes accessed per row activation (Byte)
board.memory.mem_ctrl.dram.bytesRead          1661248                       # Total bytes read (Byte)
board.memory.mem_ctrl.dram.bytesWritten         32192                       # Total bytes written (Byte)
board.memory.mem_ctrl.dram.avgRdBW        3322.316595                       # Average DRAM read bandwidth in MiBytes/s ((Byte/Second))
board.memory.mem_ctrl.dram.avgWrBW          64.380523                       # Average DRAM write bandwidth in MiBytes/s ((Byte/Second))
board.memory.mem_ctrl.dram.peakBW            12800.00                       # Theoretical peak bandwidth in MiByte/s ((Byte/Second))
board.memory.mem_ctrl.dram.busUtil              26.46                       # Data bus utilization in percentage (Ratio)
board.memory.mem_ctrl.dram.busUtilRead          25.96                       # Data bus utilization in percentage for reads (Ratio)
board.memory.mem_ctrl.dram.busUtilWrite          0.50                       # Data bus utilization in percentage for writes (Ratio)
board.memory.mem_ctrl.dram.pageHitRate          91.82                       # Row buffer hit rate, read and write combined (Ratio)
board.memory.mem_ctrl.dram.power_state.pwrStateResidencyTicks::UNDEFINED    500027000                       # Cumulative time (in ticks) in various power states (Tick)
board.memory.mem_ctrl.dram.rank0.actEnergy     13573140                       # Energy for activate commands per rank (pJ) (Joule)
board.memory.mem_ctrl.dram.rank0.preEnergy      7195320                       # Energy for precharge commands per rank (pJ) (Joule)
board.memory.mem_ctrl.dram.rank0.readEnergy    167904240                       # Energy for read commands per rank (pJ) (Joule)
board.memory.mem_ctrl.dram.rank0.writeEnergy      1195380                       # Energy for write commands per rank (pJ) (Joule)
board.memory.mem_ctrl.dram.rank0.refreshEnergy 39336960.000000                       # Energy for refresh commands per rank (pJ) (Joule)
board.memory.mem_ctrl.dram.rank0.actBackEnergy    226279170                       # Energy for active background per rank (pJ) (Joule)
board.memory.mem_ctrl.dram.rank0.preBackEnergy      1459680                       # Energy for precharge background per rank (pJ) (Joule)
board.memory.mem_ctrl.dram.rank0.actPowerDownEnergy            0                       # Energy for active power-down per rank (pJ) (Joule)
board.memory.mem_ctrl.dram.rank0.prePowerDownEnergy            0                       # Energy for precharge power-down per rank (pJ) (Joule)
board.memory.mem_ctrl.dram.rank0.selfRefreshEnergy            0                       # Energy for self refresh per rank (pJ) (Joule)
board.memory.mem_ctrl.dram.rank0.totalEnergy    456943890                       # Total energy per rank (pJ) (Joule)
board.memory.mem_ctrl.dram.rank0.averagePower   913.838433                       # Core power per rank (mW) (Watt)
board.memory.mem_ctrl.dram.rank0.totalIdleTime            0                       # Total Idle time Per DRAM Rank (Tick)
board.memory.mem_ctrl.dram.rank0.pwrStateTime::IDLE      1174550                       # Time in different power states (Tick)
board.memory.mem_ctrl.dram.rank0.pwrStateTime::REF     16640000                       # Time in different power states (Tick)
board.memory.mem_ctrl.dram.rank0.pwrStateTime::SREF            0                       # Time in different power states (Tick)
board.memory.mem_ctrl.dram.rank0.pwrStateTime::PRE_PDN            0                       # Time in different power states (Tick)
board.memory.mem_ctrl.dram.rank0.pwrStateTime::ACT    482212450                       # Time in different power states (Tick)
board.memory.mem_ctrl.dram.rank0.pwrStateTime::ACT_PDN            0                       # Time in different power states (Tick)
board.memory.mem_ctrl.dram.rank1.actEnergy      1884960                       # Energy for activate commands per rank (pJ) (Joule)
board.memory.mem_ctrl.dram.rank1.preEnergy       998085                       # Energy for precharge commands per rank (pJ) (Joule)
board.memory.mem_ctrl.dram.rank1.readEnergy     17421600                       # Energy for read commands per rank (pJ) (Joule)
board.memory.mem_ctrl.dram.rank1.writeEnergy      1430280                       # Energy for write commands per rank (pJ) (Joule)
board.memory.mem_ctrl.dram.rank1.refreshEnergy 39336960.000000                       # Energy for refresh commands per rank (pJ) (Joule)
board.memory.mem_ctrl.dram.rank1.actBackEnergy    214424310                       # Energy for active background per rank (pJ) (Joule)
board.memory.mem_ctrl.dram.rank1.preBackEnergy     11442720                       # Energy for precharge background per rank (pJ) (Joule)
board.memory.mem_ctrl.dram.rank1.actPowerDownEnergy            0                       # Energy for active power-down per rank (pJ) (Joule)
board.memory.mem_ctrl.dram.rank1.prePowerDownEnergy            0                       # Energy for precharge power-down per rank (pJ) (Joule)
board.memory.mem_ctrl.dram.rank1.selfRefreshEnergy            0                       # Energy for self refresh per rank (pJ) (Joule)
board.memory.mem_ctrl.dram.rank1.totalEnergy    286938915                       # Total energy per rank (pJ) (Joule)
board.memory.mem_ctrl.dram.rank1.averagePower   573.846842                       # Core power per rank (mW) (Watt)
board.memory.mem_ctrl.dram.rank1.totalIdleTime            0                       # Total Idle time Per DRAM Rank (Tick)
board.memory.mem_ctrl.dram.rank1.pwrStateTime::IDLE     27343050                       # Time in different power states (Tick)
board.memory.mem_ctrl.dram.rank1.pwrStateTime::REF     16640000                       # Time in different power states (Tick)
board.memory.mem_ctrl.dram.rank1.pwrStateTime::SREF            0                       # Time in different power states (Tick)
board.memory.mem_ctrl.dram.rank1.pwrStateTime::PRE_PDN            0                       # Time in different power states (Tick)
board.memory.mem_ctrl.dram.rank1.pwrStateTime::ACT    456043950                       # Time in different power states (Tick)
board.memory.mem_ctrl.dram.rank1.pwrStateTime::ACT_PDN            0                       # Time in different power states (Tick)
board.memory.mem_ctrl.power_state.pwrStateResidencyTicks::UNDEFINED    500027000                       # Cumulative time (in ticks) in various power states (Tick)
board.processor.cores0.core.numCycles         2500136                       # Number of cpu cycles simulated (Cycle)
board.processor.cores0.core.cpi             30.135191                       # CPI: cycles per instruction (core level) ((Cycle/Count))
board.processor.cores0.core.ipc              0.033184                       # IPC: instructions per cycle (core level) ((Count/Cycle))
board.processor.cores0.core.numWorkItemsStarted            0                       # Number of work items this cpu started (Count)
board.processor.cores0.core.numWorkItemsCompleted            0                       # Number of work items this cpu completed (Count)
board.processor.cores0.core.instsAdded         159203                       # Number of instructions added to the IQ (excludes non-spec) (Count)
board.processor.cores0.core.nonSpecInstsAdded           37                       # Number of non-speculative instructions added to the IQ (Count)
board.processor.cores0.core.instsIssued        159450                       # Number of instructions issued (Count)
board.processor.cores0.core.squashedInstsIssued           18                       # Number of squashed instructions issued (Count)
board.processor.cores0.core.squashedInstsExamined        10253                       # Number of squashed instructions iterated over during squash; mainly for profiling (Count)
board.processor.cores0.core.squashedOperandsExamined        19975                       # Number of squashed operands that are examined and possibly removed from graph (Count)
board.processor.cores0.core.squashedNonSpecRemoved           24                       # Number of squashed non-spec instructions that were removed (Count)
board.processor.cores0.core.numIssuedDist::samples       960852                       # Number of insts issued each cycle (Count)
board.processor.cores0.core.numIssuedDist::mean     0.165946                       # Number of insts issued each cycle (Count)
board.processor.cores0.core.numIssuedDist::stdev     0.656738                       # Number of insts issued each cycle (Count)
board.processor.cores0.core.numIssuedDist::underflows            0      0.00%      0.00% # Number of insts issued each cycle (Count)
board.processor.cores0.core.numIssuedDist::0       877144     91.29%     91.29% # Number of insts issued each cycle (Count)
board.processor.cores0.core.numIssuedDist::1        41405      4.31%     95.60% # Number of insts issued each cycle (Count)
board.processor.cores0.core.numIssuedDist::2        27515      2.86%     98.46% # Number of insts issued each cycle (Count)
board.processor.cores0.core.numIssuedDist::3         5115      0.53%     98.99% # Number of insts issued each cycle (Count)
board.processor.cores0.core.numIssuedDist::4         4043      0.42%     99.41% # Number of insts issued each cycle (Count)
board.processor.cores0.core.numIssuedDist::5         2755      0.29%     99.70% # Number of insts issued each cycle (Count)
board.processor.cores0.core.numIssuedDist::6         2486      0.26%     99.96% # Number of insts issued each cycle (Count)
board.processor.cores0.core.numIssuedDist::7          305      0.03%     99.99% # Number of insts issued each cycle (Count)
board.processor.cores0.core.numIssuedDist::8           84      0.01%    100.00% # Number of insts issued each cycle (Count)
board.processor.cores0.core.numIssuedDist::overflows            0      0.00%    100.00% # Number of insts issued each cycle (Count)
board.processor.cores0.core.numIssuedDist::min_value            0                       # Number of insts issued each cycle (Count)
board.processor.cores0.core.numIssuedDist::max_value            8                       # Number of insts issued each cycle (Count)
board.processor.cores0.core.numIssuedDist::total       960852                       # Number of insts issued each cycle (Count)
board.processor.cores0.core.statFuBusy::No_OpClass            0      0.00%      0.00% # attempts to use FU when none available (Count)
board.processor.cores0.core.statFuBusy::IntAlu           36     26.09%     26.09% # attempts to use FU when none available (Count)
board.processor.cores0.core.statFuBusy::IntMult            0      0.00%     26.09% # attempts to use FU when none available (Count)
board.processor.cores0.core.statFuBusy::IntDiv            0      0.00%     26.09% # attempts to use FU when none available (Count)
board.processor.cores0.core.statFuBusy::FloatAdd            0      0.00%     26.09% # attempts to use FU when none available (Count)
board.processor.cores0.core.statFuBusy::FloatCmp            0      0.00%     26.09% # attempts to use FU when none available (Count)
board.processor.cores0.core.statFuBusy::FloatCvt            0      0.00%     26.09% # attempts to use FU when none available (Count)
board.processor.cores0.core.statFuBusy::FloatMult            0      0.00%     26.09% # attempts to use FU when none available (Count)
board.processor.cores0.core.statFuBusy::FloatMultAcc            0      0.00%     26.09% # attempts to use FU when none available (Count)
board.processor.cores0.core.statFuBusy::FloatDiv            0      0.00%     26.09% # attempts to use FU when none available (Count)
board.processor.cores0.core.statFuBusy::FloatMisc            0      0.00%     26.09% # attempts to use FU when none available (Count)
board.processor.cores0.core.statFuBusy::FloatSqrt            0      0.00%     26.09% # attempts to use FU when none available (Count)
board.processor.cores0.core.statFuBusy::SimdAdd            0      0.00%     26.09% # attempts to use FU when none available (Count)
board.processor.cores0.core.statFuBusy::SimdAddAcc            0      0.00%     26.09% # attempts to use FU when none available (Count)
board.processor.cores0.core.statFuBusy::SimdAlu            8      5.80%     31.88% # attempts to use FU when none available (Count)
board.processor.cores0.core.statFuBusy::SimdCmp            0      0.00%     31.88% # attempts to use FU when none available (Count)
board.processor.cores0.core.statFuBusy::SimdCvt            0      0.00%     31.88% # attempts to use FU when none available (Count)
board.processor.cores0.core.statFuBusy::SimdMisc            0      0.00%     31.88% # attempts to use FU when none available (Count)
board.processor.cores0.core.statFuBusy::SimdMult            0      0.00%     31.88% # attempts to use FU when none available (Count)
board.processor.cores0.core.statFuBusy::SimdMultAcc            0      0.00%     31.88% # attempts to use FU when none available (Count)
board.processor.cores0.core.statFuBusy::SimdMatMultAcc            0      0.00%     31.88% # attempts to use FU when none available (Count)
board.processor.cores0.core.statFuBusy::SimdShift            0      0.00%     31.88% # attempts to use FU when none available (Count)
board.processor.cores0.core.statFuBusy::SimdShiftAcc            0      0.00%     31.88% # attempts to use FU when none available (Count)
board.processor.cores0.core.statFuBusy::SimdDiv            0      0.00%     31.88% # attempts to use FU when none available (Count)
board.processor.cores0.core.statFuBusy::SimdSqrt            0      0.00%     31.88% # attempts to use FU when none available (Count)
board.processor.cores0.core.statFuBusy::SimdFloatAdd            0      0.00%     31.88% # attempts to use FU when none available (Count)
board.processor.cores0.core.statFuBusy::SimdFloatAlu            0      0.00%     31.88% # attempts to use FU when none available (Count)
board.processor.cores0.core.statFuBusy::SimdFloatCmp            0      0.00%     31.88% # attempts to use FU when none available (Count)
board.processor.cores0.core.statFuBusy::SimdFloatCvt            0      0.00%     31.88% # attempts to use FU when none available (Count)
board.processor.cores0.core.statFuBusy::SimdFloatDiv            0      0.00%     31.88% # attempts to use FU when none available (Count)
board.processor.cores0.core.statFuBusy::SimdFloatMisc            0      0.00%     31.88% # attempts to use FU when none available (Count)
board.processor.cores0.core.statFuBusy::SimdFloatMult            0      0.00%     31.88% # attempts to use FU when none available (Count)
board.processor.cores0.core.statFuBusy::SimdFloatMultAcc            0      0.00%     31.88% # attempts to use FU when none available (Count)
board.processor.cores0.core.statFuBusy::SimdFloatMatMultAcc            0      0.00%     31.88% # attempts to use FU when none available (Count)
board.processor.cores0.core.statFuBusy::SimdFloatSqrt            0      0.00%     31.88% # attempts to use FU when none available (Count)
board.processor.cores0.core.statFuBusy::SimdReduceAdd            0      0.00%     31.88% # attempts to use FU when none available (Count)
board.processor.cores0.core.statFuBusy::SimdReduceAlu            0      0.00%     31.88% # attempts to use FU when none available (Count)
board.processor.cores0.core.statFuBusy::SimdReduceCmp            0      0.00%     31.88% # attempts to use FU when none available (Count)
board.processor.cores0.core.statFuBusy::SimdFloatReduceAdd            0      0.00%     31.88% # attempts to use FU when none available (Count)
board.processor.cores0.core.statFuBusy::SimdFloatReduceCmp            0      0.00%     31.88% # attempts to use FU when none available (Count)
board.processor.cores0.core.statFuBusy::SimdAes            0      0.00%     31.88% # attempts to use FU when none available (Count)
board.processor.cores0.core.statFuBusy::SimdAesMix            0      0.00%     31.88% # attempts to use FU when none available (Count)
board.processor.cores0.core.statFuBusy::SimdSha1Hash            0      0.00%     31.88% # attempts to use FU when none available (Count)
board.processor.cores0.core.statFuBusy::SimdSha1Hash2            0      0.00%     31.88% # attempts to use FU when none available (Count)
board.processor.cores0.core.statFuBusy::SimdSha256Hash            0      0.00%     31.88% # attempts to use FU when none available (Count)
board.processor.cores0.core.statFuBusy::SimdSha256Hash2            0      0.00%     31.88% # attempts to use FU when none available (Count)
board.processor.cores0.core.statFuBusy::SimdShaSigma2            0      0.00%     31.88% # attempts to use FU when none available (Count)
board.processor.cores0.core.statFuBusy::SimdShaSigma3            0      0.00%     31.88% # attempts to use FU when none available (Count)
board.processor.cores0.core.statFuBusy::SimdPredAlu            0      0.00%     31.88% # attempts to use FU when none available (Count)
board.processor.cores0.core.statFuBusy::Matrix            0      0.00%     31.88% # attempts to use FU when none available (Count)
board.processor.cores0.core.statFuBusy::MatrixMov            0      0.00%     31.88% # attempts to use FU when none available (Count)
board.processor.cores0.core.statFuBusy::MatrixOP            0      0.00%     31.88% # attempts to use FU when none available (Count)
board.processor.cores0.core.statFuBusy::MemRead           28     20.29%     52.17% # attempts to use FU when none available (Count)
board.processor.cores0.core.statFuBusy::MemWrite           22     15.94%     68.12% # attempts to use FU when none available (Count)
board.processor.cores0.core.statFuBusy::FloatMemRead           36     26.09%     94.20% # attempts to use FU when none available (Count)
board.processor.cores0.core.statFuBusy::FloatMemWrite            8      5.80%    100.00% # attempts to use FU when none available (Count)
board.processor.cores0.core.statFuBusy::IprAccess            0      0.00%    100.00% # attempts to use FU when none available (Count)
board.processor.cores0.core.statFuBusy::InstPrefetch            0      0.00%    100.00% # attempts to use FU when none available (Count)
board.processor.cores0.core.statFuBusy::VectorUnitStrideLoad            0      0.00%    100.00% # attempts to use FU when none available (Count)
board.processor.cores0.core.statFuBusy::VectorUnitStrideStore            0      0.00%    100.00% # attempts to use FU when none available (Count)
board.processor.cores0.core.statFuBusy::VectorUnitStrideMaskLoad            0      0.00%    100.00% # attempts to use FU when none available (Count)
board.processor.cores0.core.statFuBusy::VectorUnitStrideMaskStore            0      0.00%    100.00% # attempts to use FU when none available (Count)
board.processor.cores0.core.statFuBusy::VectorStridedLoad            0      0.00%    100.00% # attempts to use FU when none available (Count)
board.processor.cores0.core.statFuBusy::VectorStridedStore            0      0.00%    100.00% # attempts to use FU when none available (Count)
board.processor.cores0.core.statFuBusy::VectorIndexedLoad            0      0.00%    100.00% # attempts to use FU when none available (Count)
board.processor.cores0.core.statFuBusy::VectorIndexedStore            0      0.00%    100.00% # attempts to use FU when none available (Count)
board.processor.cores0.core.statFuBusy::VectorUnitStrideFaultOnlyFirstLoad            0      0.00%    100.00% # attempts to use FU when none available (Count)
board.processor.cores0.core.statFuBusy::VectorWholeRegisterLoad            0      0.00%    100.00% # attempts to use FU when none available (Count)
board.processor.cores0.core.statFuBusy::VectorWholeRegisterStore            0      0.00%    100.00% # attempts to use FU when none available (Count)
board.processor.cores0.core.statFuBusy::VectorIntegerArith            0      0.00%    100.00% # attempts to use FU when none available (Count)
board.processor.cores0.core.statFuBusy::VectorFloatArith            0      0.00%    100.00% # attempts to use FU when none available (Count)
board.processor.cores0.core.statFuBusy::VectorFloatConvert            0      0.00%    100.00% # attempts to use FU when none available (Count)
board.processor.cores0.core.statFuBusy::VectorIntegerReduce            0      0.00%    100.00% # attempts to use FU when none available (Count)
board.processor.cores0.core.statFuBusy::VectorFloatReduce            0      0.00%    100.00% # attempts to use FU when none available (Count)
board.processor.cores0.core.statFuBusy::VectorMisc            0      0.00%    100.00% # attempts to use FU when none available (Count)
board.processor.cores0.core.statFuBusy::VectorIntegerExtension            0      0.00%    100.00% # attempts to use FU when none available (Count)
board.processor.cores0.core.statFuBusy::VectorConfig            0      0.00%    100.00% # attempts to use FU when none available (Count)
board.processor.cores0.core.statIssuedInstType_0::No_OpClass         3661      2.30%      2.30% # Number of instructions issued per FU type, per thread (Count)
board.processor.cores0.core.statIssuedInstType_0::IntAlu       110714     69.43%     71.73% # Number of instructions issued per FU type, per thread (Count)
board.processor.cores0.core.statIssuedInstType_0::IntMult         1004      0.63%     72.36% # Number of instructions issued per FU type, per thread (Count)
board.processor.cores0.core.statIssuedInstType_0::IntDiv           21      0.01%     72.37% # Number of instructions issued per FU type, per thread (Count)
board.processor.cores0.core.statIssuedInstType_0::FloatAdd         2202      1.38%     73.75% # Number of instructions issued per FU type, per thread (Count)
board.processor.cores0.core.statIssuedInstType_0::FloatCmp            0      0.00%     73.75% # Number of instructions issued per FU type, per thread (Count)
board.processor.cores0.core.statIssuedInstType_0::FloatCvt            0      0.00%     73.75% # Number of instructions issued per FU type, per thread (Count)
board.processor.cores0.core.statIssuedInstType_0::FloatMult            0      0.00%     73.75% # Number of instructions issued per FU type, per thread (Count)
board.processor.cores0.core.statIssuedInstType_0::FloatMultAcc            0      0.00%     73.75% # Number of instructions issued per FU type, per thread (Count)
board.processor.cores0.core.statIssuedInstType_0::FloatDiv            0      0.00%     73.75% # Number of instructions issued per FU type, per thread (Count)
board.processor.cores0.core.statIssuedInstType_0::FloatMisc            0      0.00%     73.75% # Number of instructions issued per FU type, per thread (Count)
board.processor.cores0.core.statIssuedInstType_0::FloatSqrt            0      0.00%     73.75% # Number of instructions issued per FU type, per thread (Count)
board.processor.cores0.core.statIssuedInstType_0::SimdAdd            8      0.01%     73.76% # Number of instructions issued per FU type, per thread (Count)
board.processor.cores0.core.statIssuedInstType_0::SimdAddAcc            0      0.00%     73.76% # Number of instructions issued per FU type, per thread (Count)
board.processor.cores0.core.statIssuedInstType_0::SimdAlu          134      0.08%     73.84% # Number of instructions issued per FU type, per thread (Count)
board.processor.cores0.core.statIssuedInstType_0::SimdCmp            0      0.00%     73.84% # Number of instructions issued per FU type, per thread (Count)
board.processor.cores0.core.statIssuedInstType_0::SimdCvt           46      0.03%     73.87% # Number of instructions issued per FU type, per thread (Count)
board.processor.cores0.core.statIssuedInstType_0::SimdMisc         1246      0.78%     74.65% # Number of instructions issued per FU type, per thread (Count)
board.processor.cores0.core.statIssuedInstType_0::SimdMult            0      0.00%     74.65% # Number of instructions issued per FU type, per thread (Count)
board.processor.cores0.core.statIssuedInstType_0::SimdMultAcc            0      0.00%     74.65% # Number of instructions issued per FU type, per thread (Count)
board.processor.cores0.core.statIssuedInstType_0::SimdMatMultAcc            0      0.00%     74.65% # Number of instructions issued per FU type, per thread (Count)
board.processor.cores0.core.statIssuedInstType_0::SimdShift            0      0.00%     74.65% # Number of instructions issued per FU type, per thread (Count)
board.processor.cores0.core.statIssuedInstType_0::SimdShiftAcc            0      0.00%     74.65% # Number of instructions issued per FU type, per thread (Count)
board.processor.cores0.core.statIssuedInstType_0::SimdDiv            0      0.00%     74.65% # Number of instructions issued per FU type, per thread (Count)
board.processor.cores0.core.statIssuedInstType_0::SimdSqrt            0      0.00%     74.65% # Number of instructions issued per FU type, per thread (Count)
board.processor.cores0.core.statIssuedInstType_0::SimdFloatAdd         1000      0.63%     75.28% # Number of instructions issued per FU type, per thread (Count)
board.processor.cores0.core.statIssuedInstType_0::SimdFloatAlu            0      0.00%     75.28% # Number of instructions issued per FU type, per thread (Count)
board.processor.cores0.core.statIssuedInstType_0::SimdFloatCmp            0      0.00%     75.28% # Number of instructions issued per FU type, per thread (Count)
board.processor.cores0.core.statIssuedInstType_0::SimdFloatCvt            0      0.00%     75.28% # Number of instructions issued per FU type, per thread (Count)
board.processor.cores0.core.statIssuedInstType_0::SimdFloatDiv            0      0.00%     75.28% # Number of instructions issued per FU type, per thread (Count)
board.processor.cores0.core.statIssuedInstType_0::SimdFloatMisc            0      0.00%     75.28% # Number of instructions issued per FU type, per thread (Count)
board.processor.cores0.core.statIssuedInstType_0::SimdFloatMult            0      0.00%     75.28% # Number of instructions issued per FU type, per thread (Count)
board.processor.cores0.core.statIssuedInstType_0::SimdFloatMultAcc            0      0.00%     75.28% # Number of instructions issued per FU type, per thread (Count)
board.processor.cores0.core.statIssuedInstType_0::SimdFloatMatMultAcc            0      0.00%     75.28% # Number of instructions issued per FU type, per thread (Count)
board.processor.cores0.core.statIssuedInstType_0::SimdFloatSqrt            0      0.00%     75.28% # Number of instructions issued per FU type, per thread (Count)
board.processor.cores0.core.statIssuedInstType_0::SimdReduceAdd            0      0.00%     75.28% # Number of instructions issued per FU type, per thread (Count)
board.processor.cores0.core.statIssuedInstType_0::SimdReduceAlu            0      0.00%     75.28% # Number of instructions issued per FU type, per thread (Count)
board.processor.cores0.core.statIssuedInstType_0::SimdReduceCmp            0      0.00%     75.28% # Number of instructions issued per FU type, per thread (Count)
board.processor.cores0.core.statIssuedInstType_0::SimdFloatReduceAdd            0      0.00%     75.28% # Number of instructions issued per FU type, per thread (Count)
board.processor.cores0.core.statIssuedInstType_0::SimdFloatReduceCmp            0      0.00%     75.28% # Number of instructions issued per FU type, per thread (Count)
board.processor.cores0.core.statIssuedInstType_0::SimdAes            0      0.00%     75.28% # Number of instructions issued per FU type, per thread (Count)
board.processor.cores0.core.statIssuedInstType_0::SimdAesMix            0      0.00%     75.28% # Number of instructions issued per FU type, per thread (Count)
board.processor.cores0.core.statIssuedInstType_0::SimdSha1Hash            0      0.00%     75.28% # Number of instructions issued per FU type, per thread (Count)
board.processor.cores0.core.statIssuedInstType_0::SimdSha1Hash2            0      0.00%     75.28% # Number of instructions issued per FU type, per thread (Count)
board.processor.cores0.core.statIssuedInstType_0::SimdSha256Hash            0      0.00%     75.28% # Number of instructions issued per FU type, per thread (Count)
board.processor.cores0.core.statIssuedInstType_0::SimdSha256Hash2            0      0.00%     75.28% # Number of instructions issued per FU type, per thread (Count)
board.processor.cores0.core.statIssuedInstType_0::SimdShaSigma2            0      0.00%     75.28% # Number of instructions issued per FU type, per thread (Count)
board.processor.cores0.core.statIssuedInstType_0::SimdShaSigma3            0      0.00%     75.28% # Number of instructions issued per FU type, per thread (Count)
board.processor.cores0.core.statIssuedInstType_0::SimdPredAlu            0      0.00%     75.28% # Number of instructions issued per FU type, per thread (Count)
board.processor.cores0.core.statIssuedInstType_0::Matrix            0      0.00%     75.28% # Number of instructions issued per FU type, per thread (Count)
board.processor.cores0.core.statIssuedInstType_0::MatrixMov            0      0.00%     75.28% # Number of instructions issued per FU type, per thread (Count)
board.processor.cores0.core.statIssuedInstType_0::MatrixOP            0      0.00%     75.28% # Number of instructions issued per FU type, per thread (Count)
board.processor.cores0.core.statIssuedInstType_0::MemRead        23622     14.81%     90.10% # Number of instructions issued per FU type, per thread (Count)
board.processor.cores0.core.statIssuedInstType_0::MemWrite        10669      6.69%     96.79% # Number of instructions issued per FU type, per thread (Count)
board.processor.cores0.core.statIssuedInstType_0::FloatMemRead         2528      1.59%     98.37% # Number of instructions issued per FU type, per thread (Count)
board.processor.cores0.core.statIssuedInstType_0::FloatMemWrite         2595      1.63%    100.00% # Number of instructions issued per FU type, per thread (Count)
board.processor.cores0.core.statIssuedInstType_0::IprAccess            0      0.00%    100.00% # Number of instructions issued per FU type, per thread (Count)
board.processor.cores0.core.statIssuedInstType_0::InstPrefetch            0      0.00%    100.00% # Number of instructions issued per FU type, per thread (Count)
board.processor.cores0.core.statIssuedInstType_0::VectorUnitStrideLoad            0      0.00%    100.00% # Number of instructions issued per FU type, per thread (Count)
board.processor.cores0.core.statIssuedInstType_0::VectorUnitStrideStore            0      0.00%    100.00% # Number of instructions issued per FU type, per thread (Count)
board.processor.cores0.core.statIssuedInstType_0::VectorUnitStrideMaskLoad            0      0.00%    100.00% # Number of instructions issued per FU type, per thread (Count)
board.processor.cores0.core.statIssuedInstType_0::VectorUnitStrideMaskStore            0      0.00%    100.00% # Number of instructions issued per FU type, per thread (Count)
board.processor.cores0.core.statIssuedInstType_0::VectorStridedLoad            0      0.00%    100.00% # Number of instructions issued per FU type, per thread (Count)
board.processor.cores0.core.statIssuedInstType_0::VectorStridedStore            0      0.00%    100.00% # Number of instructions issued per FU type, per thread (Count)
board.processor.cores0.core.statIssuedInstType_0::VectorIndexedLoad            0      0.00%    100.00% # Number of instructions issued per FU type, per thread (Count)
board.processor.cores0.core.statIssuedInstType_0::VectorIndexedStore            0      0.00%    100.00% # Number of instructions issued per FU type, per thread (Count)
board.processor.cores0.core.statIssuedInstType_0::VectorUnitStrideFaultOnlyFirstLoad            0      0.00%    100.00% # Number of instructions issued per FU type, per thread (Count)
board.processor.cores0.core.statIssuedInstType_0::VectorWholeRegisterLoad            0      0.00%    100.00% # Number of instructions issued per FU type, per thread (Count)
board.processor.cores0.core.statIssuedInstType_0::VectorWholeRegisterStore            0      0.00%    100.00% # Number of instructions issued per FU type, per thread (Count)
board.processor.cores0.core.statIssuedInstType_0::VectorIntegerArith            0      0.00%    100.00% # Number of instructions issued per FU type, per thread (Count)
board.processor.cores0.core.statIssuedInstType_0::VectorFloatArith            0      0.00%    100.00% # Number of instructions issued per FU type, per thread (Count)
board.processor.cores0.core.statIssuedInstType_0::VectorFloatConvert            0      0.00%    100.00% # Number of instructions issued per FU type, per thread (Count)
board.processor.cores0.core.statIssuedInstType_0::VectorIntegerReduce            0      0.00%    100.00% # Number of instructions issued per FU type, per thread (Count)
board.processor.cores0.core.statIssuedInstType_0::VectorFloatReduce            0      0.00%    100.00% # Number of instructions issued per FU type, per thread (Count)
board.processor.cores0.core.statIssuedInstType_0::VectorMisc            0      0.00%    100.00% # Number of instructions issued per FU type, per thread (Count)
board.processor.cores0.core.statIssuedInstType_0::VectorIntegerExtension            0      0.00%    100.00% # Number of instructions issued per FU type, per thread (Count)
board.processor.cores0.core.statIssuedInstType_0::VectorConfig            0      0.00%    100.00% # Number of instructions issued per FU type, per thread (Count)
board.processor.cores0.core.statIssuedInstType_0::total       159450                       # Number of instructions issued per FU type, per thread (Count)
board.processor.cores0.core.issueRate        0.063777                       # Inst issue rate ((Count/Cycle))
board.processor.cores0.core.fuBusy                138                       # FU busy when requested (Count)
board.processor.cores0.core.fuBusyRate       0.000865                       # FU busy rate (busy events/executed inst) ((Count/Count))
board.processor.cores0.core.intInstQueueReads      1260010                       # Number of integer instruction queue reads (Count)
board.processor.cores0.core.intInstQueueWrites       159594                       # Number of integer instruction queue writes (Count)
board.processor.cores0.core.intInstQueueWakeupAccesses       145226                       # Number of integer instruction queue wakeup accesses (Count)
board.processor.cores0.core.fpInstQueueReads        19898                       # Number of floating instruction queue reads (Count)
board.processor.cores0.core.fpInstQueueWrites         9914                       # Number of floating instruction queue writes (Count)
board.processor.cores0.core.fpInstQueueWakeupAccesses         9513                       # Number of floating instruction queue wakeup accesses (Count)
board.processor.cores0.core.vecInstQueueReads            0                       # Number of vector instruction queue reads (Count)
board.processor.cores0.core.vecInstQueueWrites            0                       # Number of vector instruction queue writes (Count)
board.processor.cores0.core.vecInstQueueWakeupAccesses            0                       # Number of vector instruction queue wakeup accesses (Count)
board.processor.cores0.core.intAluAccesses       145953                       # Number of integer alu accesses (Count)
board.processor.cores0.core.fpAluAccesses         9974                       # Number of floating point alu accesses (Count)
board.processor.cores0.core.vecAluAccesses            0                       # Number of vector alu accesses (Count)
board.processor.cores0.core.numSquashedInsts          140                       # Number of squashed instructions skipped in execute (Count)
board.processor.cores0.core.numSwp                  0                       # Number of swp insts executed (Count)
board.processor.cores0.core.timesIdled          26672                       # Number of times that the entire CPU went into an idle state and unscheduled itself (Count)
board.processor.cores0.core.idleCycles        1539284                       # Total number of cycles that the CPU has spent unscheduled due to idling (Cycle)
board.processor.cores0.core.MemDepUnit__0.insertedLoads        23284                       # Number of loads inserted to the mem dependence unit. (Count)
board.processor.cores0.core.MemDepUnit__0.insertedStores        13718                       # Number of stores inserted to the mem dependence unit. (Count)
board.processor.cores0.core.MemDepUnit__0.conflictingLoads         3042                       # Number of conflicting loads. (Count)
board.processor.cores0.core.MemDepUnit__0.conflictingStores         1078                       # Number of conflicting stores. (Count)
board.processor.cores0.core.MemDepUnit__1.insertedLoads            0                       # Number of loads inserted to the mem dependence unit. (Count)
board.processor.cores0.core.MemDepUnit__1.insertedStores            0                       # Number of stores inserted to the mem dependence unit. (Count)
board.processor.cores0.core.MemDepUnit__1.conflictingLoads            0                       # Number of conflicting loads. (Count)
board.processor.cores0.core.MemDepUnit__1.conflictingStores            0                       # Number of conflicting stores. (Count)
board.processor.cores0.core.MemDepUnit__2.insertedLoads            0                       # Number of loads inserted to the mem dependence unit. (Count)
board.processor.cores0.core.MemDepUnit__2.insertedStores            0                       # Number of stores inserted to the mem dependence unit. (Count)
[...]
board.processor.cores1.core.commitStats0.committedInstType::SimdDiv            0                       # Class of committed instruction. (Count)
board.processor.cores1.core.commitStats0.committedInstType::SimdSqrt            0                       # Class of committed instruction. (Count)
board.processor.cores1.core.commitStats0.committedInstType::SimdFloatAdd            0                       # Class of committed instruction. (Count)
board.processor.cores1.core.commitStats0.committedInstType::SimdFloatAlu            0                       # Class of committed instruction. (Count)
board.processor.cores1.core.commitStats0.committedInstType::SimdFloatCmp            0                       # Class of committed instruction. (Count)
board.processor.cores1.core.commitStats0.committedInstType::SimdFloatCvt            0                       # Class of committed instruction. (Count)
board.processor.cores1.core.commitStats0.committedInstType::SimdFloatDiv            0                       # Class of committed instruction. (Count)
board.processor.cores1.core.commitStats0.committedInstType::SimdFloatMisc            0                       # Class of committed instruction. (Count)
board.processor.cores1.core.commitStats0.committedInstType::SimdFloatMult            0                       # Class of committed instruction. (Count)
board.processor.cores1.core.commitStats0.committedInstType::SimdFloatMultAcc            0                       # Class of committed instruction. (Count)
board.processor.cores1.core.commitStats0.committedInstType::SimdFloatMatMultAcc            0                       # Class of committed instruction. (Count)
board.processor.cores1.core.commitStats0.committedInstType::SimdFloatSqrt            0                       # Class of committed instruction. (Count)
board.processor.cores1.core.commitStats0.committedInstType::SimdReduceAdd            0                       # Class of committed instruction. (Count)
board.processor.cores1.core.commitStats0.committedInstType::SimdReduceAlu            0                       # Class of committed instruction. (Count)
board.processor.cores1.core.commitStats0.committedInstType::SimdReduceCmp            0                       # Class of committed instruction. (Count)
board.processor.cores1.core.commitStats0.committedInstType::SimdFloatReduceAdd            0                       # Class of committed instruction. (Count)
board.processor.cores1.core.commitStats0.committedInstType::SimdFloatReduceCmp            0                       # Class of committed instruction. (Count)
board.processor.cores1.core.commitStats0.committedInstType::SimdAes            0                       # Class of committed instruction. (Count)
board.processor.cores1.core.commitStats0.committedInstType::SimdAesMix            0                       # Class of committed instruction. (Count)
board.processor.cores1.core.commitStats0.committedInstType::SimdSha1Hash            0                       # Class of committed instruction. (Count)
board.processor.cores1.core.commitStats0.committedInstType::SimdSha1Hash2            0                       # Class of committed instruction. (Count)
board.processor.cores1.core.commitStats0.committedInstType::SimdSha256Hash            0                       # Class of committed instruction. (Count)
board.processor.cores1.core.commitStats0.committedInstType::SimdSha256Hash2            0                       # Class of committed instruction. (Count)
board.processor.cores1.core.commitStats0.committedInstType::SimdShaSigma2            0                       # Class of committed instruction. (Count)
board.processor.cores1.core.commitStats0.committedInstType::SimdShaSigma3            0                       # Class of committed instruction. (Count)
board.processor.cores1.core.commitStats0.committedInstType::SimdPredAlu            0                       # Class of committed instruction. (Count)
board.processor.cores1.core.commitStats0.committedInstType::Matrix            0                       # Class of committed instruction. (Count)
board.processor.cores1.core.commitStats0.committedInstType::MatrixMov            0                       # Class of committed instruction. (Count)
board.processor.cores1.core.commitStats0.committedInstType::MatrixOP            0                       # Class of committed instruction. (Count)
board.processor.cores1.core.commitStats0.committedInstType::MemRead            0                       # Class of committed instruction. (Count)
board.processor.cores1.core.commitStats0.committedInstType::MemWrite            0                       # Class of committed instruction. (Count)
board.processor.cores1.core.commitStats0.committedInstType::FloatMemRead            0                       # Class of committed instruction. (Count)
board.processor.cores1.core.commitStats0.committedInstType::FloatMemWrite            0                       # Class of committed instruction. (Count)
board.processor.cores1.core.commitStats0.committedInstType::IprAccess            0                       # Class of committed instruction. (Count)
board.processor.cores1.core.commitStats0.committedInstType::InstPrefetch            0                       # Class of committed instruction. (Count)
board.processor.cores1.core.commitStats0.committedInstType::VectorUnitStrideLoad            0                       # Class of committed instruction. (Count)
board.processor.cores1.core.commitStats0.committedInstType::VectorUnitStrideStore            0                       # Class of committed instruction. (Count)
board.processor.cores1.core.commitStats0.committedInstType::VectorUnitStrideMaskLoad            0                       # Class of committed instruction. (Count)
board.processor.cores1.core.commitStats0.committedInstType::VectorUnitStrideMaskStore            0                       # Class of committed instruction. (Count)
board.processor.cores1.core.commitStats0.committedInstType::VectorStridedLoad            0                       # Class of committed instruction. (Count)
board.processor.cores1.core.commitStats0.committedInstType::VectorStridedStore            0                       # Class of committed instruction. (Count)
board.processor.cores1.core.commitStats0.committedInstType::VectorIndexedLoad            0                       # Class of committed instruction. (Count)
board.processor.cores1.core.commitStats0.committedInstType::VectorIndexedStore            0                       # Class of committed instruction. (Count)
board.processor.cores1.core.commitStats0.committedInstType::VectorUnitStrideFaultOnlyFirstLoad            0                       # Class of committed instruction. (Count)
board.processor.cores1.core.commitStats0.committedInstType::VectorWholeRegisterLoad            0                       # Class of committed instruction. (Count)
board.processor.cores1.core.commitStats0.committedInstType::VectorWholeRegisterStore            0                       # Class of committed instruction. (Count)
board.processor.cores1.core.commitStats0.committedInstType::VectorIntegerArith            0                       # Class of committed instruction. (Count)
board.processor.cores1.core.commitStats0.committedInstType::VectorFloatArith            0                       # Class of committed instruction. (Count)
board.processor.cores1.core.commitStats0.committedInstType::VectorFloatConvert            0                       # Class of committed instruction. (Count)
board.processor.cores1.core.commitStats0.committedInstType::VectorIntegerReduce            0                       # Class of committed instruction. (Count)
board.processor.cores1.core.commitStats0.committedInstType::VectorFloatReduce            0                       # Class of committed instruction. (Count)
board.processor.cores1.core.commitStats0.committedInstType::VectorMisc            0                       # Class of committed instruction. (Count)
board.processor.cores1.core.commitStats0.committedInstType::VectorIntegerExtension            0                       # Class of committed instruction. (Count)
board.processor.cores1.core.commitStats0.committedInstType::VectorConfig            0                       # Class of committed instruction. (Count)
board.processor.cores1.core.commitStats0.committedInstType::total            0                       # Class of committed instruction. (Count)
board.processor.cores1.core.executeStats0.numInsts            0                       # Number of executed instructions (Count)
board.processor.cores1.core.executeStats0.numNop            0                       # Number of nop insts executed (Count)
board.processor.cores1.core.executeStats0.numBranches            0                       # Number of branches executed (Count)
board.processor.cores1.core.executeStats0.numLoadInsts            0                       # Number of load instructions executed (Count)
board.processor.cores1.core.executeStats0.numStoreInsts            0                       # Number of stores executed (Count)
board.processor.cores1.core.executeStats0.instRate          nan                       # Inst execution rate ((Count/Cycle))
board.processor.cores1.core.executeStats0.numFpRegWrites            0                       # Number of times the floating registers were written (Count)
board.processor.cores1.core.executeStats0.numMemRefs            0                       # Number of memory refs (Count)
board.processor.cores1.core.executeStats0.numVecAluAccesses            0                       # Number of vector alu accesses (Count)
board.processor.cores1.core.executeStats0.numDiscardedOps            0                       # Number of ops (including micro ops) which were discarded before commit (Count)
board.processor.cores1.core.fetch.nisnDist::samples            0                       # Number of instructions fetched each cycle (Total) (Count)
board.processor.cores1.core.fetch.nisnDist::mean          nan                       # Number of instructions fetched each cycle (Total) (Count)
board.processor.cores1.core.fetch.nisnDist::stdev          nan                       # Number of instructions fetched each cycle (Total) (Count)
board.processor.cores1.core.fetch.nisnDist::underflows            0                       # Number of instructions fetched each cycle (Total) (Count)
board.processor.cores1.core.fetch.nisnDist::0            0                       # Number of instructions fetched each cycle (Total) (Count)
board.processor.cores1.core.fetch.nisnDist::1            0                       # Number of instructions fetched each cycle (Total) (Count)
board.processor.cores1.core.fetch.nisnDist::2            0                       # Number of instructions fetched each cycle (Total) (Count)
board.processor.cores1.core.fetch.nisnDist::3            0                       # Number of instructions fetched each cycle (Total) (Count)
board.processor.cores1.core.fetch.nisnDist::4            0                       # Number of instructions fetched each cycle (Total) (Count)
board.processor.cores1.core.fetch.nisnDist::5            0                       # Number of instructions fetched each cycle (Total) (Count)
board.processor.cores1.core.fetch.nisnDist::6            0                       # Number of instructions fetched each cycle (Total) (Count)
board.processor.cores1.core.fetch.nisnDist::7            0                       # Number of instructions fetched each cycle (Total) (Count)
board.processor.cores1.core.fetch.nisnDist::8            0                       # Number of instructions fetched each cycle (Total) (Count)
board.processor.cores1.core.fetch.nisnDist::overflows            0                       # Number of instructions fetched each cycle (Total) (Count)
board.processor.cores1.core.fetch.nisnDist::min_value            0                       # Number of instructions fetched each cycle (Total) (Count)
board.processor.cores1.core.fetch.nisnDist::max_value            0                       # Number of instructions fetched each cycle (Total) (Count)
board.processor.cores1.core.fetch.nisnDist::total            0                       # Number of instructions fetched each cycle (Total) (Count)
board.processor.cores1.core.fetch.idleRate          nan                       # Ratio of cycles fetch was idle (Ratio)
board.processor.cores1.core.fetchStats0.numInsts            0                       # Number of instructions fetched (thread level) (Count)
board.processor.cores1.core.fetchStats0.numOps            0                       # Number of ops (including micro ops) fetched (thread level) (Count)
board.processor.cores1.core.fetchStats0.fetchRate          nan                       # Number of inst fetches per cycle ((Count/Cycle))
board.processor.cores1.core.fetchStats0.branchRate          nan                       # Number of branch fetches per cycle (Ratio)
board.processor.cores1.core.fetchStats0.numFetchSuspends            0                       # Number of times Execute suspended instruction fetching (Count)
board.processor.cores1.core.iew.idleCycles            0                       # Number of cycles IEW is idle (Cycle)
board.processor.cores1.core.iew.squashCycles            0                       # Number of cycles IEW is squashing (Cycle)
board.processor.cores1.core.iew.blockCycles            0                       # Number of cycles IEW is blocking (Cycle)
board.processor.cores1.core.iew.unblockCycles            0                       # Number of cycles IEW is unblocking (Cycle)
board.processor.cores1.core.iew.dispatchedInsts            0                       # Number of instructions dispatched to IQ (Count)
board.processor.cores1.core.iew.dispSquashedInsts            0                       # Number of squashed instructions skipped by dispatch (Count)
board.processor.cores1.core.iew.dispLoadInsts            0                       # Number of dispatched load instructions (Count)
board.processor.cores1.core.iew.dispStoreInsts            0                       # Number of dispatched store instructions (Count)
board.processor.cores1.core.iew.dispNonSpecInsts            0                       # Number of dispatched non-speculative instructions (Count)
board.processor.cores1.core.iew.iqFullEvents            0                       # Number of times the IQ has become full, causing a stall (Count)
board.processor.cores1.core.iew.lsqFullEvents            0                       # Number of times the LSQ has become full, causing a stall (Count)
board.processor.cores1.core.iew.memOrderViolationEvents            0                       # Number of memory order violations (Count)
board.processor.cores1.core.iew.predictedTakenIncorrect            0                       # Number of branches that were predicted taken incorrectly (Count)
board.processor.cores1.core.iew.predictedNotTakenIncorrect            0                       # Number of branches that were predicted not taken incorrectly (Count)
board.processor.cores1.core.iew.branchMispredicts            0                       # Number of branch mispredicts detected at execute (Count)
board.processor.cores1.core.iew.instsToCommit            0                       # Cumulative count of insts sent to commit (Count)
board.processor.cores1.core.iew.writebackCount            0                       # Cumulative count of insts written-back (Count)
board.processor.cores1.core.iew.producerInst            0                       # Number of instructions producing a value (Count)
board.processor.cores1.core.iew.consumerInst            0                       # Number of instructions consuming a value (Count)
board.processor.cores1.core.iew.wbRate            nan                       # Insts written-back per cycle ((Count/Cycle))
board.processor.cores1.core.iew.wbFanout          nan                       # Average fanout of values written-back ((Count/Count))
board.processor.cores1.core.interrupts.clk_domain.clock         3200                       # Clock period in ticks (Tick)
board.processor.cores1.core.lsq0.forwLoads            0                       # Number of loads that had data forwarded from stores (Count)
board.processor.cores1.core.lsq0.squashedLoads            0                       # Number of loads squashed (Count)
board.processor.cores1.core.lsq0.ignoredResponses            0                       # Number of memory responses ignored because the instruction is squashed (Count)
board.processor.cores1.core.lsq0.memOrderViolation            0                       # Number of memory ordering violations (Count)
board.processor.cores1.core.lsq0.squashedStores            0                       # Number of stores squashed (Count)
board.processor.cores1.core.lsq0.rescheduledLoads            0                       # Number of loads that were rescheduled (Count)
board.processor.cores1.core.lsq0.blockedByCache            0                       # Number of times an access to memory failed due to the cache being blocked (Count)
board.processor.cores1.core.mmu.dtb.rdAccesses            0                       # TLB accesses on read requests (Count)
board.processor.cores1.core.mmu.dtb.wrAccesses            0                       # TLB accesses on write requests (Count)
board.processor.cores1.core.mmu.dtb.rdMisses            0                       # TLB misses on read requests (Count)
board.processor.cores1.core.mmu.dtb.wrMisses            0                       # TLB misses on write requests (Count)
board.processor.cores1.core.mmu.dtb.walker.power_state.pwrStateResidencyTicks::UNDEFINED      7891600                       # Cumulative time (in ticks) in various power states (Tick)
board.processor.cores1.core.mmu.itb.rdAccesses            0                       # TLB accesses on read requests (Count)
board.processor.cores1.core.mmu.itb.wrAccesses            0                       # TLB accesses on write requests (Count)
board.processor.cores1.core.mmu.itb.rdMisses            0                       # TLB misses on read requests (Count)
board.processor.cores1.core.mmu.itb.wrMisses            0                       # TLB misses on write requests (Count)
board.processor.cores1.core.mmu.itb.walker.power_state.pwrStateResidencyTicks::UNDEFINED      7891600                       # Cumulative time (in ticks) in various power states (Tick)
board.processor.cores1.core.power_state.pwrStateResidencyTicks::ON      7891600                       # Cumulative time (in ticks) in various power states (Tick)
board.processor.cores1.core.rename.serializeStallCycles            0                       # count of cycles rename stalled for serializing inst (Cycle)
board.processor.cores1.core.rename.serializing            0                       # count of serializing insts renamed (Count)
board.processor.cores1.core.rename.tempSerializing            0                       # count of temporary serializing insts renamed (Count)
board.processor.cores1.core.rename.skidInsts            0                       # count of insts added to the skid buffer (Count)
board.processor.cores1.core.rob.reads               0                       # The number of ROB reads (Count)
board.processor.cores1.core.rob.writes              0                       # The number of ROB writes (Count)
board.processor.cores1.core.thread_0.numInsts            0                       # Number of Instructions committed (Count)
board.processor.cores1.core.thread_0.numOps            0                       # Number of Ops committed (Count)
board.processor.cores1.core.thread_0.numMemRefs            0                       # Number of Memory References (Count)
board.workload.inst.arm                             0                       # number of arm instructions executed (Count)
board.workload.inst.quiesce                         0                       # number of quiesce instructions executed (Count)

---------- End Simulation Statistics   ----------
