
---------- Begin Simulation Statistics ----------
simSeconds                                   0.004910                       # Number of seconds simulated (Second)
simTicks                                   4909975600                       # Number of ticks simulated (Tick)
finalTick                                  4909975600                       # Number of ticks from beginning of simulation (restored from checkpoints and never reset) (Tick)
simFreq                                  1000000000000                       # The number of ticks per simulated second ((Tick/Second))
hostSeconds                                      4.38                       # Real time elapsed on the host (Second)
hostTickRate                               1120495192                       # The number of ticks simulated per host second (ticks/s) ((Tick/Second))
hostMemory                                    1183496                       # Number of bytes of host memory used (Byte)
simInsts                                       900442                       # Number of instructions simulated (Count)
simOps                                        1489887                       # Number of ops (including micro ops) simulated (Count)
hostInstRate                                   205485                       # Simulator instruction rate (inst/s) ((Count/Second))
hostOpRate                                     339999                       # Simulator op (including micro ops) rate (op/s) ((Count/Second))
board.cache_hierarchy.membus.transDist::ReadReq       345815                       # Transaction distribution (Count)
board.cache_hierarchy.membus.transDist::ReadResp       345814                       # Transaction distribution (Count)
board.cache_hierarchy.membus.transDist::WriteReq       121946                       # Transaction distribution (Count)
board.cache_hierarchy.membus.transDist::WriteResp       121946                       # Transaction distribution (Count)
board.cache_hierarchy.membus.transDist::LockedRMWReadReq            8                       # Transaction distribution (Count)
board.cache_hierarchy.membus.transDist::LockedRMWReadResp            8                       # Transaction distribution (Count)
board.cache_hierarchy.membus.transDist::LockedRMWWriteReq            8                       # Transaction distribution (Count)
board.cache_hierarchy.membus.transDist::LockedRMWWriteResp            8                       # Transaction distribution (Count)
board.cache_hierarchy.membus.pktCount_board.processor.cores0.core.icache_port::board.memory.mem_ctrl.port       225337                       # Packet count per connected requestor and responder (Count)
board.cache_hierarchy.membus.pktCount_board.processor.cores0.core.icache_port::total       225337                       # Packet count per connected requestor and responder (Count)
board.cache_hierarchy.membus.pktCount_board.processor.cores0.core.dcache_port::board.memory.mem_ctrl.port       710216                       # Packet count per connected requestor and responder (Count)
board.cache_hierarchy.membus.pktCount_board.processor.cores0.core.dcache_port::total       710216                       # Packet count per connected requestor and responder (Count)
board.cache_hierarchy.membus.pktCount::total       935553                       # Packet count per connected requestor and responder (Count)
board.cache_hierarchy.membus.pktSize_board.processor.cores0.core.icache_port::board.memory.mem_ctrl.port      7210752                       # Cumulative packet size per connected requestor and responder (Byte)
board.cache_hierarchy.membus.pktSize_board.processor.cores0.core.icache_port::total      7210752                       # Cumulative packet size per connected requestor and responder (Byte)
board.cache_hierarchy.membus.pktSize_board.processor.cores0.core.dcache_port::board.memory.mem_ctrl.port      2174885                       # Cumulative packet size per connected requestor and responder (Byte)
board.cache_hierarchy.membus.pktSize_board.processor.cores0.core.dcache_port::total      2174885                       # Cumulative packet size per connected requestor and responder (Byte)
board.cache_hierarchy.membus.pktSize::total      9385637                       # Cumulative packet size per connected requestor and responder (Byte)
board.cache_hierarchy.membus.snoops                 0                       # Total snoops (Count)
board.cache_hierarchy.membus.snoopTraffic            0                       # Total snoop traffic (Byte)
board.cache_hierarchy.membus.snoopFanout::samples       467777                       # Request fanout histogram (Count)
board.cache_hierarchy.membus.snoopFanout::mean            0                       # Request fanout histogram (Count)
board.cache_hierarchy.membus.snoopFanout::stdev            0                       # Request fanout histogram (Count)
board.cache_hierarchy.membus.snoopFanout::underflows            0      0.00%      0.00% # Request fanout histogram (Count)
board.cache_hierarchy.membus.snoopFanout::0       467777    100.00%    100.00% # Request fanout histogram (Count)
board.cache_hierarchy.membus.snoopFanout::1            0      0.00%    100.00% # Request fanout histogram (Count)
board.cache_hierarchy.membus.snoopFanout::2            0      0.00%    100.00% # Request fanout histogram (Count)
board.cache_hierarchy.membus.snoopFanout::overflows            0      0.00%    100.00% # Request fanout histogram (Count)
board.cache_hierarchy.membus.snoopFanout::min_value            0                       # Request fanout histogram (Count)
board.cache_hierarchy.membus.snoopFanout::max_value            0                       # Request fanout histogram (Count)
board.cache_hierarchy.membus.snoopFanout::total       467777                       # Request fanout histogram (Count)
board.cache_hierarchy.membus.badaddr_responder.power_state.pwrStateResidencyTicks::UNDEFINED   4909975600                       # Cumulative time (in ticks) in various power states (Tick)
board.cache_hierarchy.membus.power_state.pwrStateResidencyTicks::UNDEFINED   4909975600                       # Cumulative time (in ticks) in various power states (Tick)
board.cache_hierarchy.membus.reqLayer4.occupancy    117946200                       # Layer occupancy (ticks) (Tick)
board.cache_hierarchy.membus.reqLayer4.utilization          0.0                       # Layer utilization (Ratio)
board.cache_hierarchy.membus.respLayer0.occupancy     51106800                       # Layer occupancy (ticks) (Tick)
board.cache_hierarchy.membus.respLayer0.utilization          0.0                       # Layer utilization (Ratio)
board.cache_hierarchy.membus.respLayer1.occupancy    127442450                       # Layer occupancy (ticks) (Tick)
board.cache_hierarchy.membus.respLayer1.utilization          0.0                       # Layer utilization (Ratio)
board.cache_hierarchy.membus.snoop_filter.totRequests            0                       # Total number of requests made to the snoop filter. (Count)
board.cache_hierarchy.membus.snoop_filter.hitSingleRequests            0                       # Number of requests hitting in the snoop filter with a single holder of the requested data. (Count)
board.cache_hierarchy.membus.snoop_filter.hitMultiRequests            0                       # Number of requests hitting in the snoop filter with multiple (>1) holders of the requested data. (Count)
board.cache_hierarchy.membus.snoop_filter.totSnoops            0                       # Total number of snoops made to the snoop filter. (Count)
board.cache_hierarchy.membus.snoop_filter.hitSingleSnoops            0                       # Number of snoops hitting in the snoop filter with a single holder of the requested data. (Count)
board.cache_hierarchy.membus.snoop_filter.hitMultiSnoops            0                       # Number of snoops hitting in the snoop filter with multiple (>1) holders of the requested data. (Count)
board.clk_domain.clock                            200                       # Clock period in ticks (Tick)
board.clk_domain.voltage_domain.voltage             1                       # Voltage in Volts (Volt)
board.memory.mem_ctrl.avgPriority_processor.cores0.core.inst::samples    112669.00                       # Average QoS priority value for accepted requests (Count)
board.memory.mem_ctrl.avgPriority_processor.cores0.core.data::samples    156778.00                       # Average QoS priority value for accepted requests (Count)
board.memory.mem_ctrl.priorityMinLatency 0.000000018750                       # per QoS priority minimum request to response latency (Second)
board.memory.mem_ctrl.priorityMaxLatency 0.001399385050                       # per QoS priority maximum request to response latency (Second)
board.memory.mem_ctrl.numReadWriteTurnArounds          220                       # Number of turnarounds from READ to WRITE (Count)
board.memory.mem_ctrl.numWriteReadTurnArounds          220                       # Number of turnarounds from WRITE to READ (Count)
board.memory.mem_ctrl.numStayReadState         651347                       # Number of times bus staying in READ state (Count)
board.memory.mem_ctrl.numStayWriteState          3306                       # Number of times bus staying in WRITE state (Count)
board.memory.mem_ctrl.readReqs                 345823                       # Number of read requests accepted (Count)
board.memory.mem_ctrl.writeReqs                121954                       # Number of write requests accepted (Count)
board.memory.mem_ctrl.readBursts               345823                       # Number of controller read bursts, including those serviced by the write queue (Count)
board.memory.mem_ctrl.writeBursts              121954                       # Number of controller write bursts, including those merged in the write queue (Count)
board.memory.mem_ctrl.servicedByWrQ             79929                       # Number of controller read bursts serviced by the write queue (Count)
board.memory.mem_ctrl.mergedWrBursts           118401                       # Number of controller write bursts merged with an existing one (Count)
board.memory.mem_ctrl.neitherReadNorWriteReqs            0                       # Number of requests that are neither read nor write (Count)
board.memory.mem_ctrl.avgRdQLen                  2.34                       # Average read queue length when enqueuing ((Count/Tick))
board.memory.mem_ctrl.avgWrQLen                 26.33                       # Average write queue length when enqueuing ((Count/Tick))
board.memory.mem_ctrl.numRdRetry                    0                       # Number of times read queue was full causing retry (Count)
board.memory.mem_ctrl.numWrRetry                    0                       # Number of times write queue was full causing retry (Count)
board.memory.mem_ctrl.readPktSize::0              278                       # Read request sizes (log2) (Count)
board.memory.mem_ctrl.readPktSize::1            60028                       # Read request sizes (log2) (Count)
board.memory.mem_ctrl.readPktSize::2            40677                       # Read request sizes (log2) (Count)
board.memory.mem_ctrl.readPktSize::3           132171                       # Read request sizes (log2) (Count)
board.memory.mem_ctrl.readPktSize::4                0                       # Read request sizes (log2) (Count)
board.memory.mem_ctrl.readPktSize::5                0                       # Read request sizes (log2) (Count)
board.memory.mem_ctrl.readPktSize::6           112669                       # Read request sizes (log2) (Count)
board.memory.mem_ctrl.writePktSize::0              29                       # Write request sizes (log2) (Count)
board.memory.mem_ctrl.writePktSize::1           10003                       # Write request sizes (log2) (Count)
board.memory.mem_ctrl.writePktSize::2           20233                       # Write request sizes (log2) (Count)
board.memory.mem_ctrl.writePktSize::3           91689                       # Write request sizes (log2) (Count)
board.memory.mem_ctrl.writePktSize::4               0                       # Write request sizes (log2) (Count)
board.memory.mem_ctrl.writePktSize::5               0                       # Write request sizes (log2) (Count)
board.memory.mem_ctrl.writePktSize::6               0                       # Write request sizes (log2) (Count)
board.memory.mem_ctrl.rdQLenPdf::0             106981                       # What read queue length does an incoming req see (Count)
board.memory.mem_ctrl.rdQLenPdf::1              73949                       # What read queue length does an incoming req see (Count)
board.memory.mem_ctrl.rdQLenPdf::2              52723                       # What read queue length does an incoming req see (Count)
board.memory.mem_ctrl.rdQLenPdf::3              31046                       # What read queue length does an incoming req see (Count)
board.memory.mem_ctrl.rdQLenPdf::4                515                       # What read queue length does an incoming req see (Count)
board.memory.mem_ctrl.rdQLenPdf::5                192                       # What read queue length does an incoming req see (Count)
board.memory.mem_ctrl.rdQLenPdf::6                117                       # What read queue length does an incoming req see (Count)
board.memory.mem_ctrl.rdQLenPdf::7                 78                       # What read queue length does an incoming req see (Count)
board.memory.mem_ctrl.rdQLenPdf::8                 67                       # What read queue length does an incoming req see (Count)
board.memory.mem_ctrl.rdQLenPdf::9                 38                       # What read queue length does an incoming req see (Count)
board.memory.mem_ctrl.rdQLenPdf::10                34                       # What read queue length does an incoming req see (Count)
board.memory.mem_ctrl.rdQLenPdf::11                28                       # What read queue length does an incoming req see (Count)
board.memory.mem_ctrl.rdQLenPdf::12                19                       # What read queue length does an incoming req see (Count)
board.memory.mem_ctrl.rdQLenPdf::13                11                       # What read queue length does an incoming req see (Count)
board.memory.mem_ctrl.rdQLenPdf::14                14                       # What read queue length does an incoming req see (Count)
board.memory.mem_ctrl.rdQLenPdf::15                 9                       # What read queue length does an incoming req see (Count)
board.memory.mem_ctrl.rdQLenPdf::16                 7                       # What read queue length does an incoming req see (Count)
board.memory.mem_ctrl.rdQLenPdf::17                 8                       # What read queue length does an incoming req see (Count)
board.memory.mem_ctrl.rdQLenPdf::18                 8                       # What read queue length does an incoming req see (Count)
board.memory.mem_ctrl.rdQLenPdf::19                 9                       # What read queue length does an incoming req see (Count)
board.memory.mem_ctrl.rdQLenPdf::20                 7                       # What read queue length does an incoming req see (Count)
board.memory.mem_ctrl.rdQLenPdf::21                 7                       # What read queue length does an incoming req see (Count)
board.memory.mem_ctrl.rdQLenPdf::22                 4                       # What read queue length does an incoming req see (Count)
board.memory.mem_ctrl.rdQLenPdf::23                 7                       # What read queue length does an incoming req see (Count)
board.memory.mem_ctrl.rdQLenPdf::24                 5                       # What read queue length does an incoming req see (Count)
board.memory.mem_ctrl.rdQLenPdf::25                 4                       # What read queue length does an incoming req see (Count)
board.memory.mem_ctrl.rdQLenPdf::26                 5                       # What read queue length does an incoming req see (Count)
board.memory.mem_ctrl.rdQLenPdf::27                 2                       # What read queue length does an incoming req see (Count)
board.memory.mem_ctrl.rdQLenPdf::28                 0                       # What read queue length does an incoming req see (Count)
board.memory.mem_ctrl.rdQLenPdf::29                 0                       # What read queue length does an incoming req see (Count)
board.memory.mem_ctrl.rdQLenPdf::30                 0                       # What read queue length does an incoming req see (Count)
board.memory.mem_ctrl.rdQLenPdf::31                 0                       # What read queue length does an incoming req see (Count)
board.memory.mem_ctrl.wrQLenPdf::0                  1                       # What write queue length does an incoming req see (Count)
board.memory.mem_ctrl.wrQLenPdf::1                  1                       # What write queue length does an incoming req see (Count)
board.memory.mem_ctrl.wrQLenPdf::2                  1                       # What write queue length does an incoming req see (Count)
board.memory.mem_ctrl.wrQLenPdf::3                  1                       # What write queue length does an incoming req see (Count)
board.memory.mem_ctrl.wrQLenPdf::4                  1                       # What write queue length does an incoming req see (Count)
board.memory.mem_ctrl.wrQLenPdf::5                  1                       # What write queue length does an incoming req see (Count)
board.memory.mem_ctrl.wrQLenPdf::6                  1                       # What write queue length does an incoming req see (Count)
board.memory.mem_ctrl.wrQLenPdf::7                  1                       # What write queue length does an incoming req see (Count)
board.memory.mem_ctrl.wrQLenPdf::8                  1                       # What write queue length does an incoming req see (Count)
board.memory.mem_ctrl.wrQLenPdf::9                  1                       # What write queue length does an incoming req see (Count)
board.memory.mem_ctrl.wrQLenPdf::10                 1                       # What write queue length does an incoming req see (Count)
board.memory.mem_ctrl.wrQLenPdf::11                 1                       # What write queue length does an incoming req see (Count)
board.memory.mem_ctrl.wrQLenPdf::12                 1                       # What write queue length does an incoming req see (Count)
board.memory.mem_ctrl.wrQLenPdf::13                 1                       # What write queue length does an incoming req see (Count)
board.memory.mem_ctrl.wrQLenPdf::14                 1                       # What write queue length does an incoming req see (Count)
board.memory.mem_ctrl.wrQLenPdf::15                 4                       # What write queue length does an incoming req see (Count)
board.memory.mem_ctrl.wrQLenPdf::16                 4                       # What write queue length does an incoming req see (Count)
board.memory.mem_ctrl.wrQLenPdf::17               168                       # What write queue length does an incoming req see (Count)
board.memory.mem_ctrl.wrQLenPdf::18               175                       # What write queue length does an incoming req see (Count)
board.memory.mem_ctrl.wrQLenPdf::19               222                       # What write queue length does an incoming req see (Count)
board.memory.mem_ctrl.wrQLenPdf::20               222                       # What write queue length does an incoming req see (Count)
board.memory.mem_ctrl.wrQLenPdf::21               235                       # What write queue length does an incoming req see (Count)
board.memory.mem_ctrl.wrQLenPdf::22               251                       # What write queue length does an incoming req see (Count)
board.memory.mem_ctrl.wrQLenPdf::23               222                       # What write queue length does an incoming req see (Count)
board.memory.mem_ctrl.wrQLenPdf::24               222                       # What write queue length does an incoming req see (Count)
board.memory.mem_ctrl.wrQLenPdf::25               246                       # What write queue length does an incoming req see (Count)
board.memory.mem_ctrl.wrQLenPdf::26               234                       # What write queue length does an incoming req see (Count)
board.memory.mem_ctrl.wrQLenPdf::27               221                       # What write queue length does an incoming req see (Count)
board.memory.mem_ctrl.wrQLenPdf::28               230                       # What write queue length does an incoming req see (Count)
board.memory.mem_ctrl.wrQLenPdf::29               222                       # What write queue length does an incoming req see (Count)
board.memory.mem_ctrl.wrQLenPdf::30               220                       # What write queue length does an incoming req see (Count)
board.memory.mem_ctrl.wrQLenPdf::31               220                       # What write queue length does an incoming req see (Count)
board.memory.mem_ctrl.wrQLenPdf::32               220                       # What write queue length does an incoming req see (Count)
board.memory.mem_ctrl.wrQLenPdf::33                 0                       # What write queue length does an incoming req see (Count)
board.memory.mem_ctrl.wrQLenPdf::34                 0                       # What write queue length does an incoming req see (Count)
board.memory.mem_ctrl.wrQLenPdf::35                 0                       # What write queue length does an incoming req see (Count)
board.memory.mem_ctrl.wrQLenPdf::36                 0                       # What write queue length does an incoming req see (Count)
board.memory.mem_ctrl.wrQLenPdf::37                 0                       # What write queue length does an incoming req see (Count)
board.memory.mem_ctrl.wrQLenPdf::38                 0                       # What write queue length does an incoming req see (Count)
board.memory.mem_ctrl.wrQLenPdf::39                 0                       # What write queue length does an incoming req see (Count)
board.memory.mem_ctrl.wrQLenPdf::40                 0                       # What write queue length does an incoming req see (Count)
board.memory.mem_ctrl.wrQLenPdf::41                 0                       # What write queue length does an incoming req see (Count)
board.memory.mem_ctrl.wrQLenPdf::42                 0                       # What write queue length does an incoming req see (Count)
board.memory.mem_ctrl.wrQLenPdf::43                 0                       # What write queue length does an incoming req see (Count)
board.memory.mem_ctrl.wrQLenPdf::44                 0                       # What write queue length does an incoming req see (Count)
board.memory.mem_ctrl.wrQLenPdf::45                 0                       # What write queue length does an incoming req see (Count)
board.memory.mem_ctrl.wrQLenPdf::46                 0                       # What write queue length does an incoming req see (Count)
board.memory.mem_ctrl.wrQLenPdf::47                 0                       # What write queue length does an incoming req see (Count)
board.memory.mem_ctrl.wrQLenPdf::48                 0                       # What write queue length does an incoming req see (Count)
board.memory.mem_ctrl.wrQLenPdf::49                 0                       # What write queue length does an incoming req see (Count)
board.memory.mem_ctrl.wrQLenPdf::50                 0                       # What write queue length does an incoming req see (Count)
board.memory.mem_ctrl.wrQLenPdf::51                 0                       # What write queue length does an incoming req see (Count)
board.memory.mem_ctrl.wrQLenPdf::52                 0                       # What write queue length does an incoming req see (Count)
board.memory.mem_ctrl.wrQLenPdf::53                 0                       # What write queue length does an incoming req see (Count)
board.memory.mem_ctrl.wrQLenPdf::54                 0                       # What write queue length does an incoming req see (Count)
board.memory.mem_ctrl.wrQLenPdf::55                 0                       # What write queue length does an incoming req see (Count)
board.memory.mem_ctrl.wrQLenPdf::56                 0                       # What write queue length does an incoming req see (Count)
board.memory.mem_ctrl.wrQLenPdf::57                 0                       # What write queue length does an incoming req see (Count)
board.memory.mem_ctrl.wrQLenPdf::58                 0                       # What write queue length does an incoming req see (Count)
board.memory.mem_ctrl.wrQLenPdf::59                 0                       # What write queue length does an incoming req see (Count)
board.memory.mem_ctrl.wrQLenPdf::60                 0                       # What write queue length does an incoming req see (Count)
board.memory.mem_ctrl.wrQLenPdf::61                 0                       # What write queue length does an incoming req see (Count)
board.memory.mem_ctrl.wrQLenPdf::62                 0                       # What write queue length does an incoming req see (Count)
board.memory.mem_ctrl.wrQLenPdf::63                 0                       # What write queue length does an incoming req see (Count)
board.memory.mem_ctrl.rdPerTurnAround::samples          220                       # Reads before turning the bus around for writes (Count)
board.memory.mem_ctrl.rdPerTurnAround::mean  1205.118182                       # Reads before turning the bus around for writes (Count)
board.memory.mem_ctrl.rdPerTurnAround::stdev   269.696150                       # Reads before turning the bus around for writes (Count)
board.memory.mem_ctrl.rdPerTurnAround::0-63            2      0.91%      0.91% # Reads before turning the bus around for writes (Count)
board.memory.mem_ctrl.rdPerTurnAround::64-127            1      0.45%      1.36% # Reads before turning the bus around for writes (Count)
board.memory.mem_ctrl.rdPerTurnAround::128-191            1      0.45%      1.82% # Reads before turning the bus around for writes (Count)
board.memory.mem_ctrl.rdPerTurnAround::192-255            2      0.91%      2.73% # Reads before turning the bus around for writes (Count)
board.memory.mem_ctrl.rdPerTurnAround::256-319            1      0.45%      3.18% # Reads before turning the bus around for writes (Count)
board.memory.mem_ctrl.rdPerTurnAround::320-383            1      0.45%      3.64% # Reads before turning the bus around for writes (Count)
board.memory.mem_ctrl.rdPerTurnAround::448-511            2      0.91%      4.55% # Reads before turning the bus around for writes (Count)
board.memory.mem_ctrl.rdPerTurnAround::576-639            1      0.45%      5.00% # Reads before turning the bus around for writes (Count)
board.memory.mem_ctrl.rdPerTurnAround::640-703            1      0.45%      5.45% # Reads before turning the bus around for writes (Count)
board.memory.mem_ctrl.rdPerTurnAround::704-767            1      0.45%      5.91% # Reads before turning the bus around for writes (Count)
board.memory.mem_ctrl.rdPerTurnAround::768-831            1      0.45%      6.36% # Reads before turning the bus around for writes (Count)
board.memory.mem_ctrl.rdPerTurnAround::832-895            6      2.73%      9.09% # Reads before turning the bus around for writes (Count)
board.memory.mem_ctrl.rdPerTurnAround::1024-1087           11      5.00%     14.09% # Reads before turning the bus around for writes (Count)
board.memory.mem_ctrl.rdPerTurnAround::1088-1151           14      6.36%     20.45% # Reads before turning the bus around for writes (Count)
board.memory.mem_ctrl.rdPerTurnAround::1152-1215           22     10.00%     30.45% # Reads before turning the bus around for writes (Count)
board.memory.mem_ctrl.rdPerTurnAround::1216-1279          110     50.00%     80.45% # Reads before turning the bus around for writes (Count)
board.memory.mem_ctrl.rdPerTurnAround::1280-1343            7      3.18%     83.64% # Reads before turning the bus around for writes (Count)
board.memory.mem_ctrl.rdPerTurnAround::1408-1471           14      6.36%     90.00% # Reads before turning the bus around for writes (Count)
board.memory.mem_ctrl.rdPerTurnAround::1472-1535           11      5.00%     95.00% # Reads before turning the bus around for writes (Count)
board.memory.mem_ctrl.rdPerTurnAround::1600-1663            6      2.73%     97.73% # Reads before turning the bus around for writes (Count)
board.memory.mem_ctrl.rdPerTurnAround::1664-1727            5      2.27%    100.00% # Reads before turning the bus around for writes (Count)
board.memory.mem_ctrl.rdPerTurnAround::total          220                       # Reads before turning the bus around for writes (Count)
board.memory.mem_ctrl.wrPerTurnAround::samples          220                       # Writes before turning the bus around for reads (Count)
board.memory.mem_ctrl.wrPerTurnAround::mean    16.027273                       # Writes before turning the bus around for reads (Count)
board.memory.mem_ctrl.wrPerTurnAround::gmean    16.025719                       # Writes before turning the bus around for reads (Count)
board.memory.mem_ctrl.wrPerTurnAround::stdev     0.232481                       # Writes before turning the bus around for reads (Count)
board.memory.mem_ctrl.wrPerTurnAround::16          217     98.64%     98.64% # Writes before turning the bus around for reads (Count)
board.memory.mem_ctrl.wrPerTurnAround::18            3      1.36%    100.00% # Writes before turning the bus around for reads (Count)
board.memory.mem_ctrl.wrPerTurnAround::total          220                       # Writes before turning the bus around for reads (Count)
board.memory.mem_ctrl.bytesReadWrQ            5115456                       # Total number of bytes read from write queue (Byte)
board.memory.mem_ctrl.bytesReadSys            8551222                       # Total read bytes from the system interface side (Byte)
board.memory.mem_ctrl.bytesWrittenSys          834479                       # Total written bytes from the system interface side (Byte)
board.memory.mem_ctrl.avgRdBWSys         1741601730.15931082                       # Average system read bandwidth in Byte/s ((Byte/Second))
board.memory.mem_ctrl.avgWrBWSys         169955834.40373921                       # Average system write bandwidth in Byte/s ((Byte/Second))
board.memory.mem_ctrl.totGap               4909962400                       # Total gap between requests (Tick)
board.memory.mem_ctrl.avgGap                 10496.37                       # Average gap between requests ((Tick/Count))
board.memory.mem_ctrl.requestorReadBytes::processor.cores0.core.inst      7210816                       # Per-requestor bytes read from memory (Byte)
board.memory.mem_ctrl.requestorReadBytes::processor.cores0.core.data       998604                       # Per-requestor bytes read from memory (Byte)
board.memory.mem_ctrl.requestorWriteBytes::processor.cores0.core.data        26550                       # Per-requestor bytes write to memory (Byte)
board.memory.mem_ctrl.requestorReadRate::processor.cores0.core.inst 1468605261.500688552856                       # Per-requestor bytes read from memory rate ((Byte/Second))
board.memory.mem_ctrl.requestorReadRate::processor.cores0.core.data 203382680.761183410883                       # Per-requestor bytes read from memory rate ((Byte/Second))
board.memory.mem_ctrl.requestorWriteRate::processor.cores0.core.data 5407358.847160055302                       # Per-requestor bytes write to memory rate ((Byte/Second))
board.memory.mem_ctrl.requestorReadAccesses::processor.cores0.core.inst       112669                       # Per-requestor read serviced memory accesses (Count)
board.memory.mem_ctrl.requestorReadAccesses::processor.cores0.core.data       233154                       # Per-requestor read serviced memory accesses (Count)
board.memory.mem_ctrl.requestorWriteAccesses::processor.cores0.core.data       121954                       # Per-requestor write serviced memory accesses (Count)
board.memory.mem_ctrl.requestorReadTotalLat::processor.cores0.core.inst   2422035750                       # Per-requestor read total memory access latency (Tick)
board.memory.mem_ctrl.requestorReadTotalLat::processor.cores0.core.data   4554969650                       # Per-requestor read total memory access latency (Tick)
board.memory.mem_ctrl.requestorWriteTotalLat::processor.cores0.core.data 126294821950                       # Per-requestor write total memory access latency (Tick)
board.memory.mem_ctrl.requestorReadAvgLat::processor.cores0.core.inst     21496.91                       # Per-requestor read average memory access latency ((Tick/Count))
board.memory.mem_ctrl.requestorReadAvgLat::processor.cores0.core.data     19536.31                       # Per-requestor read average memory access latency ((Tick/Count))
board.memory.mem_ctrl.requestorWriteAvgLat::processor.cores0.core.data   1035593.93                       # Per-requestor write average memory access latency ((Tick/Count))
board.memory.mem_ctrl.dram.bytesRead::processor.cores0.core.inst      7210816                       # Number of bytes read from this memory (Byte)
board.memory.mem_ctrl.dram.bytesRead::processor.cores0.core.data      1340406                       # Number of bytes read from this memory (Byte)
board.memory.mem_ctrl.dram.bytesRead::total      8551222                       # Number of bytes read from this memory (Byte)
board.memory.mem_ctrl.dram.bytesInstRead::processor.cores0.core.inst      7210816                       # Number of instructions bytes read from this memory (Byte)
board.memory.mem_ctrl.dram.bytesInstRead::total      7210816                       # Number of instructions bytes read from this memory (Byte)
board.memory.mem_ctrl.dram.bytesWritten::processor.cores0.core.data       834479                       # Number of bytes written to this memory (Byte)
board.memory.mem_ctrl.dram.bytesWritten::total       834479                       # Number of bytes written to this memory (Byte)
board.memory.mem_ctrl.dram.numReads::processor.cores0.core.inst       112669                       # Number of read requests responded to by this memory (Count)
board.memory.mem_ctrl.dram.numReads::processor.cores0.core.data       233154                       # Number of read requests responded to by this memory (Count)
board.memory.mem_ctrl.dram.numReads::total       345823                       # Number of read requests responded to by this memory (Count)
board.memory.mem_ctrl.dram.numWrites::processor.cores0.core.data       121954                       # Number of write requests responded to by this memory (Count)
board.memory.mem_ctrl.dram.numWrites::total       121954                       # Number of write requests responded to by this memory (Count)
board.memory.mem_ctrl.dram.bwRead::processor.cores0.core.inst   1468605262                       # Total read bandwidth from this memory ((Byte/Second))
board.memory.mem_ctrl.dram.bwRead::processor.cores0.core.data    272996469                       # Total read bandwidth from this memory ((Byte/Second))
board.memory.mem_ctrl.dram.bwRead::total   1741601730                       # Total read bandwidth from this memory ((Byte/Second))
board.memory.mem_ctrl.dram.bwInstRead::processor.cores0.core.inst   1468605262                       # Instruction read bandwidth from this memory ((Byte/Second))
board.memory.mem_ctrl.dram.bwInstRead::total   1468605262                       # Instruction read bandwidth from this memory ((Byte/Second))
board.memory.mem_ctrl.dram.bwWrite::processor.cores0.core.data    169955834                       # Write bandwidth from this memory ((Byte/Second))
board.memory.mem_ctrl.dram.bwWrite::total    169955834                       # Write bandwidth from this memory ((Byte/Second))
board.memory.mem_ctrl.dram.bwTotal::processor.cores0.core.inst   1468605262                       # Total bandwidth to/from this memory ((Byte/Second))
board.memory.mem_ctrl.dram.bwTotal::processor.cores0.core.data    442952303                       # Total bandwidth to/from this memory ((Byte/Second))
board.memory.mem_ctrl.dram.bwTotal::total   1911557565                       # Total bandwidth to/from this memory ((Byte/Second))
board.memory.mem_ctrl.dram.readBursts          265894                       # Number of DRAM read bursts (Count)
board.memory.mem_ctrl.dram.writeBursts           3526                       # Number of DRAM write bursts (Count)
board.memory.mem_ctrl.dram.perBankRdBursts::0        30674                       # Per bank write bursts (Count)
board.memory.mem_ctrl.dram.perBankRdBursts::1          303                       # Per bank write bursts (Count)
board.memory.mem_ctrl.dram.perBankRdBursts::2          339                       # Per bank write bursts (Count)
board.memory.mem_ctrl.dram.perBankRdBursts::3          353                       # Per bank write bursts (Count)
board.memory.mem_ctrl.dram.perBankRdBursts::4        40479                       # Per bank write bursts (Count)
board.memory.mem_ctrl.dram.perBankRdBursts::5        80425                       # Per bank write bursts (Count)
board.memory.mem_ctrl.dram.perBankRdBursts::6        81645                       # Per bank write bursts (Count)
board.memory.mem_ctrl.dram.perBankRdBursts::7        20156                       # Per bank write bursts (Count)
board.memory.mem_ctrl.dram.perBankRdBursts::8          305                       # Per bank write bursts (Count)
board.memory.mem_ctrl.dram.perBankRdBursts::9            4                       # Per bank write bursts (Count)
board.memory.mem_ctrl.dram.perBankRdBursts::10            9                       # Per bank write bursts (Count)
board.memory.mem_ctrl.dram.perBankRdBursts::11          138                       # Per bank write bursts (Count)
board.memory.mem_ctrl.dram.perBankRdBursts::12        10750                       # Per bank write bursts (Count)
board.memory.mem_ctrl.dram.perBankRdBursts::13           98                       # Per bank write bursts (Count)
board.memory.mem_ctrl.dram.perBankRdBursts::14          216                       # Per bank write bursts (Count)
board.memory.mem_ctrl.dram.perBankRdBursts::15            0                       # Per bank write bursts (Count)
board.memory.mem_ctrl.dram.perBankWrBursts::0          128                       # Per bank write bursts (Count)
board.memory.mem_ctrl.dram.perBankWrBursts::1          141                       # Per bank write bursts (Count)
board.memory.mem_ctrl.dram.perBankWrBursts::2          185                       # Per bank write bursts (Count)
board.memory.mem_ctrl.dram.perBankWrBursts::3          155                       # Per bank write bursts (Count)
board.memory.mem_ctrl.dram.perBankWrBursts::4          319                       # Per bank write bursts (Count)
board.memory.mem_ctrl.dram.perBankWrBursts::5          139                       # Per bank write bursts (Count)
board.memory.mem_ctrl.dram.perBankWrBursts::6          749                       # Per bank write bursts (Count)
board.memory.mem_ctrl.dram.perBankWrBursts::7          156                       # Per bank write bursts (Count)
board.memory.mem_ctrl.dram.perBankWrBursts::8          228                       # Per bank write bursts (Count)
board.memory.mem_ctrl.dram.perBankWrBursts::9          231                       # Per bank write bursts (Count)
board.memory.mem_ctrl.dram.perBankWrBursts::10          194                       # Per bank write bursts (Count)
board.memory.mem_ctrl.dram.perBankWrBursts::11          262                       # Per bank write bursts (Count)
board.memory.mem_ctrl.dram.perBankWrBursts::12          242                       # Per bank write bursts (Count)
board.memory.mem_ctrl.dram.perBankWrBursts::13          137                       # Per bank write bursts (Count)
board.memory.mem_ctrl.dram.perBankWrBursts::14          131                       # Per bank write bursts (Count)
board.memory.mem_ctrl.dram.perBankWrBursts::15          129                       # Per bank write bursts (Count)
board.memory.mem_ctrl.dram.totQLat         1991492900                       # Total ticks spent queuing (Tick)
board.memory.mem_ctrl.dram.totBusLat       1329470000                       # Total ticks spent in databus transfers (Tick)
board.memory.mem_ctrl.dram.totMemAccLat    6977005400                       # Total ticks spent from burst creation until serviced by the DRAM (Tick)
board.memory.mem_ctrl.dram.avgQLat            7489.80                       # Average queueing delay per DRAM burst ((Tick/Count))
board.memory.mem_ctrl.dram.avgBusLat          5000.00                       # Average bus latency per DRAM burst ((Tick/Count))
board.memory.mem_ctrl.dram.avgMemAccLat      26239.80                       # Average memory access latency per DRAM burst ((Tick/Count))
board.memory.mem_ctrl.dram.readRowHits         247059                       # Number of row buffer hits during reads (Count)
board.memory.mem_ctrl.dram.writeRowHits          3216                       # Number of row buffer hits during writes (Count)
board.memory.mem_ctrl.dram.readRowHitRate        92.92                       # Row buffer hit rate for reads (Ratio)
board.memory.mem_ctrl.dram.writeRowHitRate        91.21                       # Row buffer hit rate for writes (Ratio)
board.memory.mem_ctrl.dram.bytesPerActivate::samples        19140                       # Bytes accessed per row activation (Byte)
board.memory.mem_ctrl.dram.bytesPerActivate::mean   900.754859                       # Bytes accessed per row activation (Byte)
board.memory.mem_ctrl.dram.bytesPerActivate::gmean   770.060343                       # Bytes accessed per row activation (Byte)
board.memory.mem_ctrl.dram.bytesPerActivate::stdev   298.604127                       # Bytes accessed per row activation (Byte)
board.memory.mem_ctrl.dram.bytesPerActivate::0-127         1018      5.32%      5.32% # Bytes accessed per row activation (Byte)
board.memory.mem_ctrl.dram.bytesPerActivate::128-255          886      4.63%      9.95% # Bytes accessed per row activation (Byte)
board.memory.mem_ctrl.dram.bytesPerActivate::256-383          508      2.65%     12.60% # Bytes accessed per row activation (Byte)
board.memory.mem_ctrl.dram.bytesPerActivate::384-511          201      1.05%     13.65% # Bytes accessed per row activation (Byte)
board.memory.mem_ctrl.dram.bytesPerActivate::512-639           96      0.50%     14.15% # Bytes accessed per row activation (Byte)
board.memory.mem_ctrl.dram.bytesPerActivate::640-767           66      0.34%     14.50% # Bytes accessed per row activation (Byte)
board.memory.mem_ctrl.dram.bytesPerActivate::768-895          155      0.81%     15.31% # Bytes accessed per row activation (Byte)
board.memory.mem_ctrl.dram.bytesPerActivate::896-1023           92      0.48%     15.79% # Bytes accessed per row activation (Byte)
board.memory.mem_ctrl.dram.bytesPerActivate::1024-1151        16118     84.21%    100.00% # Bytes accessed per row activation (Byte)
board.memory.mem_ctrl.dram.bytesPerActivate::total        19140                       # Bytes accessed per row activation (Byte)
board.memory.mem_ctrl.dram.bytesRead         17017216                       # Total bytes read (Byte)
board.memory.mem_ctrl.dram.bytesWritten        225664                       # Total bytes written (Byte)
board.memory.mem_ctrl.dram.avgRdBW        3465.845329                       # Average DRAM read bandwidth in MiBytes/s ((Byte/Second))
board.memory.mem_ctrl.dram.avgWrBW          45.960310                       # Average DRAM write bandwidth in MiBytes/s ((Byte/Second))
board.memory.mem_ctrl.dram.peakBW            12800.00                       # Theoretical peak bandwidth in MiByte/s ((Byte/Second))
board.memory.mem_ctrl.dram.busUtil              27.44                       # Data bus utilization in percentage (Ratio)
board.memory.mem_ctrl.dram.busUtilRead          27.08                       # Data bus utilization in percentage for reads (Ratio)
board.memory.mem_ctrl.dram.busUtilWrite          0.36                       # Data bus utilization in percentage for writes (Ratio)
board.memory.mem_ctrl.dram.pageHitRate          92.89                       # Row buffer hit rate, read and write combined (Ratio)
board.memory.mem_ctrl.dram.power_state.pwrStateResidencyTicks::UNDEFINED   4909975600                       # Cumulative time (in ticks) in various power states (Tick)
board.memory.mem_ctrl.dram.rank0.actEnergy    128891280                       # Energy for activate commands per rank (pJ) (Joule)
board.memory.mem_ctrl.dram.rank0.preEnergy     68492160                       # Energy for precharge commands per rank (pJ) (Joule)
board.memory.mem_ctrl.dram.rank0.readEnergy   1816230360                       # Energy for read commands per rank (pJ) (Joule)
board.memory.mem_ctrl.dram.rank0.writeEnergy     10293840                       # Energy for write commands per rank (pJ) (Joule)
board.memory.mem_ctrl.dram.rank0.refreshEnergy 387223200.000000                       # Energy for refresh commands per rank (pJ) (Joule)
board.memory.mem_ctrl.dram.rank0.actBackEnergy   2226480990                       # Energy for active background per rank (pJ) (Joule)
board.memory.mem_ctrl.dram.rank0.preBackEnergy     10499520                       # Energy for precharge background per rank (pJ) (Joule)
board.memory.mem_ctrl.dram.rank0.actPowerDownEnergy            0                       # Energy for active power-down per rank (pJ) (Joule)
board.memory.mem_ctrl.dram.rank0.prePowerDownEnergy            0                       # Energy for precharge power-down per rank (pJ) (Joule)
board.memory.mem_ctrl.dram.rank0.selfRefreshEnergy            0                       # Energy for self refresh per rank (pJ) (Joule)
board.memory.mem_ctrl.dram.rank0.totalEnergy   4648111350                       # Total energy per rank (pJ) (Joule)
board.memory.mem_ctrl.dram.rank0.averagePower   946.666894                       # Core power per rank (mW) (Watt)
board.memory.mem_ctrl.dram.rank0.totalIdleTime            0                       # Total Idle time Per DRAM Rank (Tick)
board.memory.mem_ctrl.dram.rank0.pwrStateTime::IDLE      5055000                       # Time in different power states (Tick)
board.memory.mem_ctrl.dram.rank0.pwrStateTime::REF    163800000                       # Time in different power states (Tick)
board.memory.mem_ctrl.dram.rank0.pwrStateTime::SREF            0                       # Time in different power states (Tick)
board.memory.mem_ctrl.dram.rank0.pwrStateTime::PRE_PDN            0                       # Time in different power states (Tick)
board.memory.mem_ctrl.dram.rank0.pwrStateTime::ACT   4741120600                       # Time in different power states (Tick)
board.memory.mem_ctrl.dram.rank0.pwrStateTime::ACT_PDN            0                       # Time in different power states (Tick)
board.memory.mem_ctrl.dram.rank1.actEnergy      7804020                       # Energy for activate commands per rank (pJ) (Joule)
board.memory.mem_ctrl.dram.rank1.preEnergy      4144140                       # Energy for precharge commands per rank (pJ) (Joule)
board.memory.mem_ctrl.dram.rank1.readEnergy     82252800                       # Energy for read commands per rank (pJ) (Joule)
board.memory.mem_ctrl.dram.rank1.writeEnergy      8111880                       # Energy for write commands per rank (pJ) (Joule)
board.memory.mem_ctrl.dram.rank1.refreshEnergy 387223200.000000                       # Energy for refresh commands per rank (pJ) (Joule)
board.memory.mem_ctrl.dram.rank1.actBackEnergy   2090695590                       # Energy for active background per rank (pJ) (Joule)
board.memory.mem_ctrl.dram.rank1.preBackEnergy    124845120                       # Energy for precharge background per rank (pJ) (Joule)
board.memory.mem_ctrl.dram.rank1.actPowerDownEnergy            0                       # Energy for active power-down per rank (pJ) (Joule)
board.memory.mem_ctrl.dram.rank1.prePowerDownEnergy            0                       # Energy for precharge power-down per rank (pJ) (Joule)
board.memory.mem_ctrl.dram.rank1.selfRefreshEnergy            0                       # Energy for self refresh per rank (pJ) (Joule)
board.memory.mem_ctrl.dram.rank1.totalEnergy   2705076750                       # Total energy per rank (pJ) (Joule)
board.memory.mem_ctrl.dram.rank1.averagePower   550.934866                       # Core power per rank (mW) (Watt)
board.memory.mem_ctrl.dram.rank1.totalIdleTime            0                       # Total Idle time Per DRAM Rank (Tick)
board.memory.mem_ctrl.dram.rank1.pwrStateTime::IDLE    305617900                       # Time in different power states (Tick)
board.memory.mem_ctrl.dram.rank1.pwrStateTime::REF    163800000                       # Time in different power states (Tick)
board.memory.mem_ctrl.dram.rank1.pwrStateTime::SREF            0                       # Time in different power states (Tick)
board.memory.mem_ctrl.dram.rank1.pwrStateTime::PRE_PDN            0                       # Time in different power states (Tick)
board.memory.mem_ctrl.dram.rank1.pwrStateTime::ACT   4440557700                       # Time in different power states (Tick)
board.memory.mem_ctrl.dram.rank1.pwrStateTime::ACT_PDN            0                       # Time in different power states (Tick)
board.memory.mem_ctrl.power_state.pwrStateResidencyTicks::UNDEFINED   4909975600                       # Cumulative time (in ticks) in various power states (Tick)
board.processor.cores0.core.numCycles        24549879                       # Number of cpu cycles simulated (Cycle)
board.processor.cores0.core.cpi             27.264254                       # CPI: cycles per instruction (core level) ((Cycle/Count))
board.processor.cores0.core.ipc              0.036678                       # IPC: instructions per cycle (core level) ((Count/Cycle))
board.processor.cores0.core.numWorkItemsStarted            0                       # Number of work items this cpu started (Count)
board.processor.cores0.core.numWorkItemsCompleted            0                       # Number of work items this cpu completed (Count)
board.processor.cores0.core.instsAdded        1501095                       # Number of instructions added to the IQ (excludes non-spec) (Count)
board.processor.cores0.core.nonSpecInstsAdded           51                       # Number of non-speculative instructions added to the IQ (Count)
board.processor.cores0.core.instsIssued       1549475                       # Number of instructions issued (Count)
board.processor.cores0.core.squashedInstsIssued           14                       # Number of squashed instructions issued (Count)
board.processor.cores0.core.squashedInstsExamined        11255                       # Number of squashed instructions iterated over during squash; mainly for profiling (Count)
board.processor.cores0.core.squashedOperandsExamined        21056                       # Number of squashed operands that are examined and possibly removed from graph (Count)
board.processor.cores0.core.squashedNonSpecRemoved           26                       # Number of squashed non-spec instructions that were removed (Count)
board.processor.cores0.core.numIssuedDist::samples      8886239                       # Number of insts issued each cycle (Count)
board.processor.cores0.core.numIssuedDist::mean     0.174368                       # Number of insts issued each cycle (Count)
board.processor.cores0.core.numIssuedDist::stdev     0.640314                       # Number of insts issued each cycle (Count)
board.processor.cores0.core.numIssuedDist::underflows            0      0.00%      0.00% # Number of insts issued each cycle (Count)
board.processor.cores0.core.numIssuedDist::0      8024652     90.30%     90.30% # Number of insts issued each cycle (Count)
board.processor.cores0.core.numIssuedDist::1       444987      5.01%     95.31% # Number of insts issued each cycle (Count)
board.processor.cores0.core.numIssuedDist::2       292942      3.30%     98.61% # Number of insts issued each cycle (Count)
board.processor.cores0.core.numIssuedDist::3        29242      0.33%     98.94% # Number of insts issued each cycle (Count)
board.processor.cores0.core.numIssuedDist::4        62628      0.70%     99.64% # Number of insts issued each cycle (Count)
board.processor.cores0.core.numIssuedDist::5        10860      0.12%     99.76% # Number of insts issued each cycle (Count)
board.processor.cores0.core.numIssuedDist::6        20524      0.23%    100.00% # Number of insts issued each cycle (Count)
board.processor.cores0.core.numIssuedDist::7          310      0.00%    100.00% # Number of insts issued each cycle (Count)
board.processor.cores0.core.numIssuedDist::8           94      0.00%    100.00% # Number of insts issued each cycle (Count)
board.processor.cores0.core.numIssuedDist::overflows            0      0.00%    100.00% # Number of insts issued each cycle (Count)
board.processor.cores0.core.numIssuedDist::min_value            0                       # Number of insts issued each cycle (Count)
board.processor.cores0.core.numIssuedDist::max_value            8                       # Number of insts issued each cycle (Count)
board.processor.cores0.core.numIssuedDist::total      8886239                       # Number of insts issued each cycle (Count)
board.processor.cores0.core.statFuBusy::No_OpClass            0      0.00%      0.00% # attempts to use FU when none available (Count)
board.processor.cores0.core.statFuBusy::IntAlu           35     24.82%     24.82% # attempts to use FU when none available (Count)
board.processor.cores0.core.statFuBusy::IntMult            0      0.00%     24.82% # attempts to use FU when none available (Count)
board.processor.cores0.core.statFuBusy::IntDiv            0      0.00%     24.82% # attempts to use FU when none available (Count)
board.processor.cores0.core.statFuBusy::FloatAdd            0      0.00%     24.82% # attempts to use FU when none available (Count)
board.processor.cores0.core.statFuBusy::FloatCmp            0      0.00%     24.82% # attempts to use FU when none available (Count)
board.processor.cores0.core.statFuBusy::FloatCvt            0      0.00%     24.82% # attempts to use FU when none available (Count)
board.processor.cores0.core.statFuBusy::FloatMult            0      0.00%     24.82% # attempts to use FU when none available (Count)
board.processor.cores0.core.statFuBusy::FloatMultAcc            0      0.00%     24.82% # attempts to use FU when none available (Count)
board.processor.cores0.core.statFuBusy::FloatDiv            0      0.00%     24.82% # attempts to use FU when none available (Count)
board.processor.cores0.core.statFuBusy::FloatMisc            0      0.00%     24.82% # attempts to use FU when none available (Count)
board.processor.cores0.core.statFuBusy::FloatSqrt            0      0.00%     24.82% # attempts to use FU when none available (Count)
board.processor.cores0.core.statFuBusy::SimdAdd            0      0.00%     24.82% # attempts to use FU when none available (Count)
board.processor.cores0.core.statFuBusy::SimdAddAcc            0      0.00%     24.82% # attempts to use FU when none available (Count)
board.processor.cores0.core.statFuBusy::SimdAlu            8      5.67%     30.50% # attempts to use FU when none available (Count)
board.processor.cores0.core.statFuBusy::SimdCmp            0      0.00%     30.50% # attempts to use FU when none available (Count)
board.processor.cores0.core.statFuBusy::SimdCvt            0      0.00%     30.50% # attempts to use FU when none available (Count)
board.processor.cores0.core.statFuBusy::SimdMisc            0      0.00%     30.50% # attempts to use FU when none available (Count)
board.processor.cores0.core.statFuBusy::SimdMult            0      0.00%     30.50% # attempts to use FU when none available (Count)
board.processor.cores0.core.statFuBusy::SimdMultAcc            0      0.00%     30.50% # attempts to use FU when none available (Count)
board.processor.cores0.core.statFuBusy::SimdMatMultAcc            0      0.00%     30.50% # attempts to use FU when none available (Count)
board.processor.cores0.core.statFuBusy::SimdShift            0      0.00%     30.50% # attempts to use FU when none available (Count)
board.processor.cores0.core.statFuBusy::SimdShiftAcc            0      0.00%     30.50% # attempts to use FU when none available (Count)
board.processor.cores0.core.statFuBusy::SimdDiv            0      0.00%     30.50% # attempts to use FU when none available (Count)
board.processor.cores0.core.statFuBusy::SimdSqrt            0      0.00%     30.50% # attempts to use FU when none available (Count)
board.processor.cores0.core.statFuBusy::SimdFloatAdd            0      0.00%     30.50% # attempts to use FU when none available (Count)
board.processor.cores0.core.statFuBusy::SimdFloatAlu            0      0.00%     30.50% # attempts to use FU when none available (Count)
board.processor.cores0.core.statFuBusy::SimdFloatCmp            0      0.00%     30.50% # attempts to use FU when none available (Count)
board.processor.cores0.core.statFuBusy::SimdFloatCvt            0      0.00%     30.50% # attempts to use FU when none available (Count)
board.processor.cores0.core.statFuBusy::SimdFloatDiv            0      0.00%     30.50% # attempts to use FU when none available (Count)
board.processor.cores0.core.statFuBusy::SimdFloatMisc            0      0.00%     30.50% # attempts to use FU when none available (Count)
board.processor.cores0.core.statFuBusy::SimdFloatMult            0      0.00%     30.50% # attempts to use FU when none available (Count)
board.processor.cores0.core.statFuBusy::SimdFloatMultAcc            0      0.00%     30.50% # attempts to use FU when none available (Count)
board.processor.cores0.core.statFuBusy::SimdFloatMatMultAcc            0      0.00%     30.50% # attempts to use FU when none available (Count)
board.processor.cores0.core.statFuBusy::SimdFloatSqrt            0      0.00%     30.50% # attempts to use FU when none available (Count)
board.processor.cores0.core.statFuBusy::SimdReduceAdd            0      0.00%     30.50% # attempts to use FU when none available (Count)
board.processor.cores0.core.statFuBusy::SimdReduceAlu            0      0.00%     30.50% # attempts to use FU when none available (Count)
board.processor.cores0.core.statFuBusy::SimdReduceCmp            0      0.00%     30.50% # attempts to use FU when none available (Count)
board.processor.cores0.core.statFuBusy::SimdFloatReduceAdd            0      0.00%     30.50% # attempts to use FU when none available (Count)
board.processor.cores0.core.statFuBusy::SimdFloatReduceCmp            0      0.00%     30.50% # attempts to use FU when none available (Count)
board.processor.cores0.core.statFuBusy::SimdAes            0      0.00%     30.50% # attempts to use FU when none available (Count)
board.processor.cores0.core.statFuBusy::SimdAesMix            0      0.00%     30.50% # attempts to use FU when none available (Count)
board.processor.cores0.core.statFuBusy::SimdSha1Hash            0      0.00%     30.50% # attempts to use FU when none available (Count)
board.processor.cores0.core.statFuBusy::SimdSha1Hash2            0      0.00%     30.50% # attempts to use FU when none available (Count)
board.processor.cores0.core.statFuBusy::SimdSha256Hash            0      0.00%     30.50% # attempts to use FU when none available (Count)
board.processor.cores0.core.statFuBusy::SimdSha256Hash2            0      0.00%     30.50% # attempts to use FU when none available (Count)
board.processor.cores0.core.statFuBusy::SimdShaSigma2            0      0.00%     30.50% # attempts to use FU when none available (Count)
board.processor.cores0.core.statFuBusy::SimdShaSigma3            0      0.00%     30.50% # attempts to use FU when none available (Count)
board.processor.cores0.core.statFuBusy::SimdPredAlu            0      0.00%     30.50% # attempts to use FU when none available (Count)
board.processor.cores0.core.statFuBusy::Matrix            0      0.00%     30.50% # attempts to use FU when none available (Count)
board.processor.cores0.core.statFuBusy::MatrixMov            0      0.00%     30.50% # attempts to use FU when none available (Count)
board.processor.cores0.core.statFuBusy::MatrixOP            0      0.00%     30.50% # attempts to use FU when none available (Count)
board.processor.cores0.core.statFuBusy::MemRead           44     31.21%     61.70% # attempts to use FU when none available (Count)
board.processor.cores0.core.statFuBusy::MemWrite           27     19.15%     80.85% # attempts to use FU when none available (Count)
board.processor.cores0.core.statFuBusy::FloatMemRead           18     12.77%     93.62% # attempts to use FU when none available (Count)
board.processor.cores0.core.statFuBusy::FloatMemWrite            9      6.38%    100.00% # attempts to use FU when none available (Count)
board.processor.cores0.core.statFuBusy::IprAccess            0      0.00%    100.00% # attempts to use FU when none available (Count)
board.processor.cores0.core.statFuBusy::InstPrefetch            0      0.00%    100.00% # attempts to use FU when none available (Count)
board.processor.cores0.core.statFuBusy::VectorUnitStrideLoad            0      0.00%    100.00% # attempts to use FU when none available (Count)
board.processor.cores0.core.statFuBusy::VectorUnitStrideStore            0      0.00%    100.00% # attempts to use FU when none available (Count)
board.processor.cores0.core.statFuBusy::VectorUnitStrideMaskLoad            0      0.00%    100.00% # attempts to use FU when none available (Count)
board.processor.cores0.core.statFuBusy::VectorUnitStrideMaskStore            0      0.00%    100.00% # attempts to use FU when none available (Count)
board.processor.cores0.core.statFuBusy::VectorStridedLoad            0      0.00%    100.00% # attempts to use FU when none available (Count)
board.processor.cores0.core.statFuBusy::VectorStridedStore            0      0.00%    100.00% # attempts to use FU when none available (Count)
board.processor.cores0.core.statFuBusy::VectorIndexedLoad            0      0.00%    100.00% # attempts to use FU when none available (Count)
board.processor.cores0.core.statFuBusy::VectorIndexedStore            0      0.00%    100.00% # attempts to use FU when none available (Count)
board.processor.cores0.core.statFuBusy::VectorUnitStrideFaultOnlyFirstLoad            0      0.00%    100.00% # attempts to use FU when none available (Count)
board.processor.cores0.core.statFuBusy::VectorWholeRegisterLoad            0      0.00%    100.00% # attempts to use FU when none available (Count)
board.processor.cores0.core.statFuBusy::VectorWholeRegisterStore            0      0.00%    100.00% # attempts to use FU when none available (Count)
board.processor.cores0.core.statFuBusy::VectorIntegerArith            0      0.00%    100.00% # attempts to use FU when none available (Count)
board.processor.cores0.core.statFuBusy::VectorFloatArith            0      0.00%    100.00% # attempts to use FU when none available (Count)
board.processor.cores0.core.statFuBusy::VectorFloatConvert            0      0.00%    100.00% # attempts to use FU when none available (Count)
board.processor.cores0.core.statFuBusy::VectorIntegerReduce            0      0.00%    100.00% # attempts to use FU when none available (Count)
board.processor.cores0.core.statFuBusy::VectorFloatReduce            0      0.00%    100.00% # attempts to use FU when none available (Count)
board.processor.cores0.core.statFuBusy::VectorMisc            0      0.00%    100.00% # attempts to use FU when none available (Count)
board.processor.cores0.core.statFuBusy::VectorIntegerExtension            0      0.00%    100.00% # attempts to use FU when none available (Count)
board.processor.cores0.core.statFuBusy::VectorConfig            0      0.00%    100.00% # attempts to use FU when none available (Count)
board.processor.cores0.core.statIssuedInstType_0::No_OpClass        30641      1.98%      1.98% # Number of instructions issued per FU type, per thread (Count)
board.processor.cores0.core.statIssuedInstType_0::IntAlu      1000991     64.60%     66.58% # Number of instructions issued per FU type, per thread (Count)
board.processor.cores0.core.statIssuedInstType_0::IntMult        10004      0.65%     67.23% # Number of instructions issued per FU type, per thread (Count)
board.processor.cores0.core.statIssuedInstType_0::IntDiv           21      0.00%     67.23% # Number of instructions issued per FU type, per thread (Count)
board.processor.cores0.core.statIssuedInstType_0::FloatAdd        20196      1.30%     68.53% # Number of instructions issued per FU type, per thread (Count)
board.processor.cores0.core.statIssuedInstType_0::FloatCmp            0      0.00%     68.53% # Number of instructions issued per FU type, per thread (Count)
board.processor.cores0.core.statIssuedInstType_0::FloatCvt            0      0.00%     68.53% # Number of instructions issued per FU type, per thread (Count)
board.processor.cores0.core.statIssuedInstType_0::FloatMult            0      0.00%     68.53% # Number of instructions issued per FU type, per thread (Count)
board.processor.cores0.core.statIssuedInstType_0::FloatMultAcc            0      0.00%     68.53% # Number of instructions issued per FU type, per thread (Count)
board.processor.cores0.core.statIssuedInstType_0::FloatDiv            0      0.00%     68.53% # Number of instructions issued per FU type, per thread (Count)
board.processor.cores0.core.statIssuedInstType_0::FloatMisc            0      0.00%     68.53% # Number of instructions issued per FU type, per thread (Count)
board.processor.cores0.core.statIssuedInstType_0::FloatSqrt            0      0.00%     68.53% # Number of instructions issued per FU type, per thread (Count)
board.processor.cores0.core.statIssuedInstType_0::SimdAdd            8      0.00%     68.53% # Number of instructions issued per FU type, per thread (Count)
board.processor.cores0.core.statIssuedInstType_0::SimdAddAcc            0      0.00%     68.53% # Number of instructions issued per FU type, per thread (Count)
board.processor.cores0.core.statIssuedInstType_0::SimdAlu          134      0.01%     68.54% # Number of instructions issued per FU type, per thread (Count)
board.processor.cores0.core.statIssuedInstType_0::SimdCmp            0      0.00%     68.54% # Number of instructions issued per FU type, per thread (Count)
board.processor.cores0.core.statIssuedInstType_0::SimdCvt           46      0.00%     68.54% # Number of instructions issued per FU type, per thread (Count)
board.processor.cores0.core.statIssuedInstType_0::SimdMisc        20240      1.31%     69.85% # Number of instructions issued per FU type, per thread (Count)
board.processor.cores0.core.statIssuedInstType_0::SimdMult            0      0.00%     69.85% # Number of instructions issued per FU type, per thread (Count)
board.processor.cores0.core.statIssuedInstType_0::SimdMultAcc            0      0.00%     69.85% # Number of instructions issued per FU type, per thread (Count)
board.processor.cores0.core.statIssuedInstType_0::SimdMatMultAcc            0      0.00%     69.85% # Number of instructions issued per FU type, per thread (Count)
board.processor.cores0.core.statIssuedInstType_0::SimdShift            0      0.00%     69.85% # Number of instructions issued per FU type, per thread (Count)
board.processor.cores0.core.statIssuedInstType_0::SimdShiftAcc            0      0.00%     69.85% # Number of instructions issued per FU type, per thread (Count)
board.processor.cores0.core.statIssuedInstType_0::SimdDiv            0      0.00%     69.85% # Number of instructions issued per FU type, per thread (Count)
board.processor.cores0.core.statIssuedInstType_0::SimdSqrt            0      0.00%     69.85% # Number of instructions issued per FU type, per thread (Count)
board.processor.cores0.core.statIssuedInstType_0::SimdFloatAdd        10000      0.65%     70.49% # Number of instructions issued per FU type, per thread (Count)
board.processor.cores0.core.statIssuedInstType_0::SimdFloatAlu            0      0.00%     70.49% # Number of instructions issued per FU type, per thread (Count)
board.processor.cores0.core.statIssuedInstType_0::SimdFloatCmp            0      0.00%     70.49% # Number of instructions issued per FU type, per thread (Count)
board.processor.cores0.core.statIssuedInstType_0::SimdFloatCvt            0      0.00%     70.49% # Number of instructions issued per FU type, per thread (Count)
board.processor.cores0.core.statIssuedInstType_0::SimdFloatDiv            0      0.00%     70.49% # Number of instructions issued per FU type, per thread (Count)
board.processor.cores0.core.statIssuedInstType_0::SimdFloatMisc            0      0.00%     70.49% # Number of instructions issued per FU type, per thread (Count)
board.processor.cores0.core.statIssuedInstType_0::SimdFloatMult            0      0.00%     70.49% # Number of instructions issued per FU type, per thread (Count)
board.processor.cores0.core.statIssuedInstType_0::SimdFloatMultAcc            0      0.00%     70.49% # Number of instructions issued per FU type, per thread (Count)
board.processor.cores0.core.statIssuedInstType_0::SimdFloatMatMultAcc            0      0.00%     70.49% # Number of instructions issued per FU type, per thread (Count)
board.processor.cores0.core.statIssuedInstType_0::SimdFloatSqrt            0      0.00%     70.49% # Number of instructions issued per FU type, per thread (Count)
board.processor.cores0.core.statIssuedInstType_0::SimdReduceAdd            0      0.00%     70.49% # Number of instructions issued per FU type, per thread (Count)
board.processor.cores0.core.statIssuedInstType_0::SimdReduceAlu            0      0.00%     70.49% # Number of instructions issued per FU type, per thread (Count)
board.processor.cores0.core.statIssuedInstType_0::SimdReduceCmp            0      0.00%     70.49% # Number of instructions issued per FU type, per thread (Count)
board.processor.cores0.core.statIssuedInstType_0::SimdFloatReduceAdd            0      0.00%     70.49% # Number of instructions issued per FU type, per thread (Count)
board.processor.cores0.core.statIssuedInstType_0::SimdFloatReduceCmp            0      0.00%     70.49% # Number of instructions issued per FU type, per thread (Count)
board.processor.cores0.core.statIssuedInstType_0::SimdAes            0      0.00%     70.49% # Number of instructions issued per FU type, per thread (Count)
board.processor.cores0.core.statIssuedInstType_0::SimdAesMix            0      0.00%     70.49% # Number of instructions issued per FU type, per thread (Count)
board.processor.cores0.core.statIssuedInstType_0::SimdSha1Hash            0      0.00%     70.49% # Number of instructions issued per FU type, per thread (Count)
board.processor.cores0.core.statIssuedInstType_0::SimdSha1Hash2            0      0.00%     70.49% # Number of instructions issued per FU type, per thread (Count)
board.processor.cores0.core.statIssuedInstType_0::SimdSha256Hash            0      0.00%     70.49% # Number of instructions issued per FU type, per thread (Count)
board.processor.cores0.core.statIssuedInstType_0::SimdSha256Hash2            0      0.00%     70.49% # Number of instructions issued per FU type, per thread (Count)
board.processor.cores0.core.statIssuedInstType_0::SimdShaSigma2            0      0.00%     70.49% # Number of instructions issued per FU type, per thread (Count)
board.processor.cores0.core.statIssuedInstType_0::SimdShaSigma3            0      0.00%     70.49% # Number of instructions issued per FU type, per thread (Count)
board.processor.cores0.core.statIssuedInstType_0::SimdPredAlu            0      0.00%     70.49% # Number of instructions issued per FU type, per thread (Count)
board.processor.cores0.core.statIssuedInstType_0::Matrix            0      0.00%     70.49% # Number of instructions issued per FU type, per thread (Count)
board.processor.cores0.core.statIssuedInstType_0::MatrixMov            0      0.00%     70.49% # Number of instructions issued per FU type, per thread (Count)
board.processor.cores0.core.statIssuedInstType_0::MatrixOP            0      0.00%     70.49% # Number of instructions issued per FU type, per thread (Count)
board.processor.cores0.core.statIssuedInstType_0::MemRead       314294     20.28%     90.78% # Number of instructions issued per FU type, per thread (Count)
board.processor.cores0.core.statIssuedInstType_0::MemWrite       111870      7.22%     98.00% # Number of instructions issued per FU type, per thread (Count)
board.processor.cores0.core.statIssuedInstType_0::FloatMemRead        20428      1.32%     99.32% # Number of instructions issued per FU type, per thread (Count)
board.processor.cores0.core.statIssuedInstType_0::FloatMemWrite        10602      0.68%    100.00% # Number of instructions issued per FU type, per thread (Count)
board.processor.cores0.core.statIssuedInstType_0::IprAccess            0      0.00%    100.00% # Number of instructions issued per FU type, per thread (Count)
board.processor.cores0.core.statIssuedInstType_0::InstPrefetch            0      0.00%    100.00% # Number of instructions issued per FU type, per thread (Count)
board.processor.cores0.core.statIssuedInstType_0::VectorUnitStrideLoad            0      0.00%    100.00% # Number of instructions issued per FU type, per thread (Count)
board.processor.cores0.core.statIssuedInstType_0::VectorUnitStrideStore            0      0.00%    100.00% # Number of instructions issued per FU type, per thread (Count)
board.processor.cores0.core.statIssuedInstType_0::VectorUnitStrideMaskLoad            0      0.00%    100.00% # Number of instructions issued per FU type, per thread (Count)
board.processor.cores0.core.statIssuedInstType_0::VectorUnitStrideMaskStore            0      0.00%    100.00% # Number of instructions issued per FU type, per thread (Count)
board.processor.cores0.core.statIssuedInstType_0::VectorStridedLoad            0      0.00%    100.00% # Number of instructions issued per FU type, per thread (Count)
board.processor.cores0.core.statIssuedInstType_0::VectorStridedStore            0      0.00%    100.00% # Number of instructions issued per FU type, per thread (Count)
board.processor.cores0.core.statIssuedInstType_0::VectorIndexedLoad            0      0.00%    100.00% # Number of instructions issued per FU type, per thread (Count)
board.processor.cores0.core.statIssuedInstType_0::VectorIndexedStore            0      0.00%    100.00% # Number of instructions issued per FU type, per thread (Count)
board.processor.cores0.core.statIssuedInstType_0::VectorUnitStrideFaultOnlyFirstLoad            0      0.00%    100.00% # Number of instructions issued per FU type, per thread (Count)
board.processor.cores0.core.statIssuedInstType_0::VectorWholeRegisterLoad            0      0.00%    100.00% # Number of instructions issued per FU type, per thread (Count)
board.processor.cores0.core.statIssuedInstType_0::VectorWholeRegisterStore            0      0.00%    100.00% # Number of instructions issued per FU type, per thread (Count)
board.processor.cores0.core.statIssuedInstType_0::VectorIntegerArith            0      0.00%    100.00% # Number of instructions issued per FU type, per thread (Count)
board.processor.cores0.core.statIssuedInstType_0::VectorFloatArith            0      0.00%    100.00% # Number of instructions issued per FU type, per thread (Count)
board.processor.cores0.core.statIssuedInstType_0::VectorFloatConvert            0      0.00%    100.00% # Number of instructions issued per FU type, per thread (Count)
board.processor.cores0.core.statIssuedInstType_0::VectorIntegerReduce            0      0.00%    100.00% # Number of instructions issued per FU type, per thread (Count)
board.processor.cores0.core.statIssuedInstType_0::VectorFloatReduce            0      0.00%    100.00% # Number of instructions issued per FU type, per thread (Count)
board.processor.cores0.core.statIssuedInstType_0::VectorMisc            0      0.00%    100.00% # Number of instructions issued per FU type, per thread (Count)
board.processor.cores0.core.statIssuedInstType_0::VectorIntegerExtension            0      0.00%    100.00% # Number of instructions issued per FU type, per thread (Count)
board.processor.cores0.core.statIssuedInstType_0::VectorConfig            0      0.00%    100.00% # Number of instructions issued per FU type, per thread (Count)
board.processor.cores0.core.statIssuedInstType_0::total      1549475                       # Number of instructions issued per FU type, per thread (Count)
board.processor.cores0.core.issueRate        0.063115                       # Inst issue rate ((Count/Cycle))
board.processor.cores0.core.fuBusy                141                       # FU busy when requested (Count)
board.processor.cores0.core.fuBusyRate       0.000091                       # FU busy rate (busy events/executed inst) ((Count/Count))
board.processor.cores0.core.intInstQueueReads     11821671                       # Number of integer instruction queue reads (Count)
board.processor.cores0.core.intInstQueueWrites      1430515                       # Number of integer instruction queue writes (Count)
board.processor.cores0.core.intInstQueueWakeupAccesses      1414935                       # Number of integer instruction queue wakeup accesses (Count)
board.processor.cores0.core.fpInstQueueReads       163673                       # Number of floating instruction queue reads (Count)
board.processor.cores0.core.fpInstQueueWrites        81905                       # Number of floating instruction queue writes (Count)
board.processor.cores0.core.fpInstQueueWakeupAccesses        81511                       # Number of floating instruction queue wakeup accesses (Count)
board.processor.cores0.core.vecInstQueueReads            0                       # Number of vector instruction queue reads (Count)
board.processor.cores0.core.vecInstQueueWrites            0                       # Number of vector instruction queue writes (Count)
board.processor.cores0.core.vecInstQueueWakeupAccesses            0                       # Number of vector instruction queue wakeup accesses (Count)
board.processor.cores0.core.intAluAccesses      1437121                       # Number of integer alu accesses (Count)
board.processor.cores0.core.fpAluAccesses        81854                       # Number of floating point alu accesses (Count)
board.processor.cores0.core.vecAluAccesses            0                       # Number of vector alu accesses (Count)
board.processor.cores0.core.numSquashedInsts          113                       # Number of squashed instructions skipped in execute (Count)
board.processor.cores0.core.numSwp                  0                       # Number of swp insts executed (Count)
board.processor.cores0.core.timesIdled         336598                       # Number of times that the entire CPU went into an idle state and unscheduled itself (Count)
board.processor.cores0.core.idleCycles       15663640                       # Total number of cycles that the CPU has spent unscheduled due to idling (Cycle)
board.processor.cores0.core.MemDepUnit__0.insertedLoads       283627                       # Number of loads inserted to the mem dependence unit. (Count)
board.processor.cores0.core.MemDepUnit__0.insertedStores       122926                       # Number of stores inserted to the mem dependence unit. (Count)
board.processor.cores0.core.MemDepUnit__0.conflictingLoads        50150                       # Number of conflicting loads. (Count)
[...]
board.processor.cores1.core.commitStats0.committedInstType::SimdDiv            0                       # Class of committed instruction. (Count)
board.processor.cores1.core.commitStats0.committedInstType::SimdSqrt            0                       # Class of committed instruction. (Count)
board.processor.cores1.core.commitStats0.committedInstType::SimdFloatAdd            0                       # Class of committed instruction. (Count)
board.processor.cores1.core.commitStats0.committedInstType::SimdFloatAlu            0                       # Class of committed instruction. (Count)
board.processor.cores1.core.commitStats0.committedInstType::SimdFloatCmp            0                       # Class of committed instruction. (Count)
board.processor.cores1.core.commitStats0.committedInstType::SimdFloatCvt            0                       # Class of committed instruction. (Count)
board.processor.cores1.core.commitStats0.committedInstType::SimdFloatDiv            0                       # Class of committed instruction. (Count)
board.processor.cores1.core.commitStats0.committedInstType::SimdFloatMisc            0                       # Class of committed instruction. (Count)
board.processor.cores1.core.commitStats0.committedInstType::SimdFloatMult            0                       # Class of committed instruction. (Count)
board.processor.cores1.core.commitStats0.committedInstType::SimdFloatMultAcc            0                       # Class of committed instruction. (Count)
board.processor.cores1.core.commitStats0.committedInstType::SimdFloatMatMultAcc            0                       # Class of committed instruction. (Count)
board.processor.cores1.core.commitStats0.committedInstType::SimdFloatSqrt            0                       # Class of committed instruction. (Count)
board.processor.cores1.core.commitStats0.committedInstType::SimdReduceAdd            0                       # Class of committed instruction. (Count)
board.processor.cores1.core.commitStats0.committedInstType::SimdReduceAlu            0                       # Class of committed instruction. (Count)
board.processor.cores1.core.commitStats0.committedInstType::SimdReduceCmp            0                       # Class of committed instruction. (Count)
board.processor.cores1.core.commitStats0.committedInstType::SimdFloatReduceAdd            0                       # Class of committed instruction. (Count)
board.processor.cores1.core.commitStats0.committedInstType::SimdFloatReduceCmp            0                       # Class of committed instruction. (Count)
board.processor.cores1.core.commitStats0.committedInstType::SimdAes            0                       # Class of committed instruction. (Count)
board.processor.cores1.core.commitStats0.committedInstType::SimdAesMix            0                       # Class of committed instruction. (Count)
board.processor.cores1.core.commitStats0.committedInstType::SimdSha1Hash            0                       # Class of committed instruction. (Count)
board.processor.cores1.core.commitStats0.committedInstType::SimdSha1Hash2            0                       # Class of committed instruction. (Count)
board.processor.cores1.core.commitStats0.committedInstType::SimdSha256Hash            0                       # Class of committed instruction. (Count)
board.processor.cores1.core.commitStats0.committedInstType::SimdSha256Hash2            0                       # Class of committed instruction. (Count)
board.processor.cores1.core.commitStats0.committedInstType::SimdShaSigma2            0                       # Class of committed instruction. (Count)
board.processor.cores1.core.commitStats0.committedInstType::SimdShaSigma3            0                       # Class of committed instruction. (Count)
board.processor.cores1.core.commitStats0.committedInstType::SimdPredAlu            0                       # Class of committed instruction. (Count)
board.processor.cores1.core.commitStats0.committedInstType::Matrix            0                       # Class of committed instruction. (Count)
board.processor.cores1.core.commitStats0.committedInstType::MatrixMov            0                       # Class of committed instruction. (Count)
board.processor.cores1.core.commitStats0.committedInstType::MatrixOP            0                       # Class of committed instruction. (Count)
board.processor.cores1.core.commitStats0.committedInstType::MemRead            0                       # Class of committed instruction. (Count)
board.processor.cores1.core.commitStats0.committedInstType::MemWrite            0                       # Class of committed instruction. (Count)
board.processor.cores1.core.commitStats0.committedInstType::FloatMemRead            0                       # Class of committed instruction. (Count)
board.processor.cores1.core.commitStats0.committedInstType::FloatMemWrite            0                       # Class of committed instruction. (Count)
board.processor.cores1.core.commitStats0.committedInstType::IprAccess            0                       # Class of committed instruction. (Count)
board.processor.cores1.core.commitStats0.committedInstType::InstPrefetch            0                       # Class of committed instruction. (Count)
board.processor.cores1.core.commitStats0.committedInstType::VectorUnitStrideLoad            0                       # Class of committed instruction. (Count)
board.processor.cores1.core.commitStats0.committedInstType::VectorUnitStrideStore            0                       # Class of committed instruction. (Count)
board.processor.cores1.core.commitStats0.committedInstType::VectorUnitStrideMaskLoad            0                       # Class of committed instruction. (Count)
board.processor.cores1.core.commitStats0.committedInstType::VectorUnitStrideMaskStore            0                       # Class of committed instruction. (Count)
board.processor.cores1.core.commitStats0.committedInstType::VectorStridedLoad            0                       # Class of committed instruction. (Count)
board.processor.cores1.core.commitStats0.committedInstType::VectorStridedStore            0                       # Class of committed instruction. (Count)
board.processor.cores1.core.commitStats0.committedInstType::VectorIndexedLoad            0                       # Class of committed instruction. (Count)
board.processor.cores1.core.commitStats0.committedInstType::VectorIndexedStore            0                       # Class of committed instruction. (Count)
board.processor.cores1.core.commitStats0.committedInstType::VectorUnitStrideFaultOnlyFirstLoad            0                       # Class of committed instruction. (Count)
board.processor.cores1.core.commitStats0.committedInstType::VectorWholeRegisterLoad            0                       # Class of committed instruction. (Count)
board.processor.cores1.core.commitStats0.committedInstType::VectorWholeRegisterStore            0                       # Class of committed instruction. (Count)
board.processor.cores1.core.commitStats0.committedInstType::VectorIntegerArith            0                       # Class of committed instruction. (Count)
board.processor.cores1.core.commitStats0.committedInstType::VectorFloatArith            0                       # Class of committed instruction. (Count)
board.processor.cores1.core.commitStats0.committedInstType::VectorFloatConvert            0                       # Class of committed instruction. (Count)
board.processor.cores1.core.commitStats0.committedInstType::VectorIntegerReduce            0                       # Class of committed instruction. (Count)
board.processor.cores1.core.commitStats0.committedInstType::VectorFloatReduce            0                       # Class of committed instruction. (Count)
board.processor.cores1.core.commitStats0.committedInstType::VectorMisc            0                       # Class of committed instruction. (Count)
board.processor.cores1.core.commitStats0.committedInstType::VectorIntegerExtension            0                       # Class of committed instruction. (Count)
board.processor.cores1.core.commitStats0.committedInstType::VectorConfig            0                       # Class of committed instruction. (Count)
board.processor.cores1.core.commitStats0.committedInstType::total            0                       # Class of committed instruction. (Count)
board.processor.cores1.core.executeStats0.numInsts            0                       # Number of executed instructions (Count)
board.processor.cores1.core.executeStats0.numNop            0                       # Number of nop insts executed (Count)
board.processor.cores1.core.executeStats0.numBranches            0                       # Number of branches executed (Count)
board.processor.cores1.core.executeStats0.numLoadInsts            0                       # Number of load instructions executed (Count)
board.processor.cores1.core.executeStats0.numStoreInsts            0                       # Number of stores executed (Count)
board.processor.cores1.core.executeStats0.instRate          nan                       # Inst execution rate ((Count/Cycle))
board.processor.cores1.core.executeStats0.numFpRegWrites            0                       # Number of times the floating registers were written (Count)
board.processor.cores1.core.executeStats0.numMemRefs            0                       # Number of memory refs (Count)
board.processor.cores1.core.executeStats0.numVecAluAccesses            0                       # Number of vector alu accesses (Count)
board.processor.cores1.core.executeStats0.numDiscardedOps            0                       # Number of ops (including micro ops) which were discarded before commit (Count)
board.processor.cores1.core.fetch.nisnDist::samples            0                       # Number of instructions fetched each cycle (Total) (Count)
board.processor.cores1.core.fetch.nisnDist::mean          nan                       # Number of instructions fetched each cycle (Total) (Count)
board.processor.cores1.core.fetch.nisnDist::stdev          nan                       # Number of instructions fetched each cycle (Total) (Count)
board.processor.cores1.core.fetch.nisnDist::underflows            0                       # Number of instructions fetched each cycle (Total) (Count)
board.processor.cores1.core.fetch.nisnDist::0            0                       # Number of instructions fetched each cycle (Total) (Count)
board.processor.cores1.core.fetch.nisnDist::1            0                       # Number of instructions fetched each cycle (Total) (Count)
board.processor.cores1.core.fetch.nisnDist::2            0                       # Number of instructions fetched each cycle (Total) (Count)
board.processor.cores1.core.fetch.nisnDist::3            0                       # Number of instructions fetched each cycle (Total) (Count)
board.processor.cores1.core.fetch.nisnDist::4            0                       # Number of instructions fetched each cycle (Total) (Count)
board.processor.cores1.core.fetch.nisnDist::5            0                       # Number of instructions fetched each cycle (Total) (Count)
board.processor.cores1.core.fetch.nisnDist::6            0                       # Number of instructions fetched each cycle (Total) (Count)
board.processor.cores1.core.fetch.nisnDist::7            0                       # Number of instructions fetched each cycle (Total) (Count)
board.processor.cores1.core.fetch.nisnDist::8            0                       # Number of instructions fetched each cycle (Total) (Count)
board.processor.cores1.core.fetch.nisnDist::overflows            0                       # Number of instructions fetched each cycle (Total) (Count)
board.processor.cores1.core.fetch.nisnDist::min_value            0                       # Number of instructions fetched each cycle (Total) (Count)
board.processor.cores1.core.fetch.nisnDist::max_value            0                       # Number of instructions fetched each cycle (Total) (Count)
board.processor.cores1.core.fetch.nisnDist::total            0                       # Number of instructions fetched each cycle (Total) (Count)
board.processor.cores1.core.fetch.idleRate          nan                       # Ratio of cycles fetch was idle (Ratio)
board.processor.cores1.core.fetchStats0.numInsts            0                       # Number of instructions fetched (thread level) (Count)
board.processor.cores1.core.fetchStats0.numOps            0                       # Number of ops (including micro ops) fetched (thread level) (Count)
board.processor.cores1.core.fetchStats0.fetchRate          nan                       # Number of inst fetches per cycle ((Count/Cycle))
board.processor.cores1.core.fetchStats0.branchRate          nan                       # Number of branch fetches per cycle (Ratio)
board.processor.cores1.core.fetchStats0.numFetchSuspends            0                       # Number of times Execute suspended instruction fetching (Count)
board.processor.cores1.core.iew.idleCycles            0                       # Number of cycles IEW is idle (Cycle)
board.processor.cores1.core.iew.squashCycles            0                       # Number of cycles IEW is squashing (Cycle)
board.processor.cores1.core.iew.blockCycles            0                       # Number of cycles IEW is blocking (Cycle)
board.processor.cores1.core.iew.unblockCycles            0                       # Number of cycles IEW is unblocking (Cycle)
board.processor.cores1.core.iew.dispatchedInsts            0                       # Number of instructions dispatched to IQ (Count)
board.processor.cores1.core.iew.dispSquashedInsts            0                       # Number of squashed instructions skipped by dispatch (Count)
board.processor.cores1.core.iew.dispLoadInsts            0                       # Number of dispatched load instructions (Count)
board.processor.cores1.core.iew.dispStoreInsts            0                       # Number of dispatched store instructions (Count)
board.processor.cores1.core.iew.dispNonSpecInsts            0                       # Number of dispatched non-speculative instructions (Count)
board.processor.cores1.core.iew.iqFullEvents            0                       # Number of times the IQ has become full, causing a stall (Count)
board.processor.cores1.core.iew.lsqFullEvents            0                       # Number of times the LSQ has become full, causing a stall (Count)
board.processor.cores1.core.iew.memOrderViolationEvents            0                       # Number of memory order violations (Count)
board.processor.cores1.core.iew.predictedTakenIncorrect            0                       # Number of branches that were predicted taken incorrectly (Count)
board.processor.cores1.core.iew.predictedNotTakenIncorrect            0                       # Number of branches that were predicted not taken incorrectly (Count)
board.processor.cores1.core.iew.branchMispredicts            0                       # Number of branch mispredicts detected at execute (Count)
board.processor.cores1.core.iew.instsToCommit            0                       # Cumulative count of insts sent to commit (Count)
board.processor.cores1.core.iew.writebackCount            0                       # Cumulative count of insts written-back (Count)
board.processor.cores1.core.iew.producerInst            0                       # Number of instructions producing a value (Count)
board.processor.cores1.core.iew.consumerInst            0                       # Number of instructions consuming a value (Count)
board.processor.cores1.core.iew.wbRate            nan                       # Insts written-back per cycle ((Count/Cycle))
board.processor.cores1.core.iew.wbFanout          nan                       # Average fanout of values written-back ((Count/Count))
board.processor.cores1.core.interrupts.clk_domain.clock         3200                       # Clock period in ticks (Tick)
board.processor.cores1.core.lsq0.forwLoads            0                       # Number of loads that had data forwarded from stores (Count)
board.processor.cores1.core.lsq0.squashedLoads            0                       # Number of loads squashed (Count)
board.processor.cores1.core.lsq0.ignoredResponses            0                       # Number of memory responses ignored because the instruction is squashed (Count)
board.processor.cores1.core.lsq0.memOrderViolation            0                       # Number of memory ordering violations (Count)
board.processor.cores1.core.lsq0.squashedStores            0                       # Number of stores squashed (Count)
board.processor.cores1.core.lsq0.rescheduledLoads            0                       # Number of loads that were rescheduled (Count)
board.processor.cores1.core.lsq0.blockedByCache            0                       # Number of times an access to memory failed due to the cache being blocked (Count)
board.processor.cores1.core.mmu.dtb.rdAccesses            0                       # TLB accesses on read requests (Count)
board.processor.cores1.core.mmu.dtb.wrAccesses            0                       # TLB accesses on write requests (Count)
board.processor.cores1.core.mmu.dtb.rdMisses            0                       # TLB misses on read requests (Count)
board.processor.cores1.core.mmu.dtb.wrMisses            0                       # TLB misses on write requests (Count)
board.processor.cores1.core.mmu.dtb.walker.power_state.pwrStateResidencyTicks::UNDEFINED     10152200                       # Cumulative time (in ticks) in various power states (Tick)
board.processor.cores1.core.mmu.itb.rdAccesses            0                       # TLB accesses on read requests (Count)
board.processor.cores1.core.mmu.itb.wrAccesses            0                       # TLB accesses on write requests (Count)
board.processor.cores1.core.mmu.itb.rdMisses            0                       # TLB misses on read requests (Count)
board.processor.cores1.core.mmu.itb.wrMisses            0                       # TLB misses on write requests (Count)
board.processor.cores1.core.mmu.itb.walker.power_state.pwrStateResidencyTicks::UNDEFINED     10152200                       # Cumulative time (in ticks) in various power states (Tick)
board.processor.cores1.core.power_state.pwrStateResidencyTicks::ON     10152200                       # Cumulative time (in ticks) in various power states (Tick)
board.processor.cores1.core.rename.serializeStallCycles            0                       # count of cycles rename stalled for serializing inst (Cycle)
board.processor.cores1.core.rename.serializing            0                       # count of serializing insts renamed (Count)
board.processor.cores1.core.rename.tempSerializing            0                       # count of temporary serializing insts renamed (Count)
board.processor.cores1.core.rename.skidInsts            0                       # count of insts added to the skid buffer (Count)
board.processor.cores1.core.rob.reads               0                       # The number of ROB reads (Count)
board.processor.cores1.core.rob.writes              0                       # The number of ROB writes (Count)
board.processor.cores1.core.thread_0.numInsts            0                       # Number of Instructions committed (Count)
board.processor.cores1.core.thread_0.numOps            0                       # Number of Ops committed (Count)
board.processor.cores1.core.thread_0.numMemRefs            0                       # Number of Memory References (Count)
board.workload.inst.arm                             0                       # number of arm instructions executed (Count)
board.workload.inst.quiesce                         0                       # number of quiesce instructions executed (Count)

---------- End Simulation Statistics   ----------
