
---------- Begin Simulation Statistics ----------
simSeconds                                   0.009589                       # Number of seconds simulated (Second)
simTicks                                   9588976400                       # Number of ticks simulated (Tick)
finalTick                                  9588976400                       # Number of ticks from beginning of simulation (restored from checkpoints and never reset) (Tick)
simFreq                                  1000000000000                       # The number of ticks per simulated second ((Tick/Second))
hostSeconds                                      1.76                       # Real time elapsed on the host (Second)
hostTickRate                               5440615810                       # The number of ticks simulated per host second (ticks/s) ((Tick/Second))
hostMemory                                    1158876                       # Number of bytes of host memory used (Byte)
simInsts                                      1013365                       # Number of instructions simulated (Count)
simOps                                        1013371                       # Number of ops (including micro ops) simulated (Count)
hostInstRate                                   574949                       # Simulator instruction rate (inst/s) ((Count/Second))
hostOpRate                                     574951                       # Simulator op (including micro ops) rate (op/s) ((Count/Second))
board.cache_hierarchy.membus.transDist::ReadReq       422615                       # Transaction distribution (Count)
board.cache_hierarchy.membus.transDist::ReadResp       422617                       # Transaction distribution (Count)
board.cache_hierarchy.membus.transDist::WriteReq       114690                       # Transaction distribution (Count)
board.cache_hierarchy.membus.transDist::WriteResp       114690                       # Transaction distribution (Count)
board.cache_hierarchy.membus.transDist::LoadLockedReq            3                       # Transaction distribution (Count)
board.cache_hierarchy.membus.transDist::StoreCondReq            3                       # Transaction distribution (Count)
board.cache_hierarchy.membus.transDist::StoreCondResp            3                       # Transaction distribution (Count)
board.cache_hierarchy.membus.transDist::SwapReq           14                       # Transaction distribution (Count)
board.cache_hierarchy.membus.transDist::SwapResp           14                       # Transaction distribution (Count)
board.cache_hierarchy.membus.pktCount_board.processor.cores0.core.fetch1.icache_port::board.memory.mem_ctrl.port       430691                       # Packet count per connected requestor and responder (Count)
board.cache_hierarchy.membus.pktCount_board.processor.cores0.core.fetch1.icache_port::total       430691                       # Packet count per connected requestor and responder (Count)
board.cache_hierarchy.membus.pktCount_board.processor.cores0.core.execute.dcache_port::board.memory.mem_ctrl.port       643958                       # Packet count per connected requestor and responder (Count)
board.cache_hierarchy.membus.pktCount_board.processor.cores0.core.execute.dcache_port::total       643958                       # Packet count per connected requestor and responder (Count)
board.cache_hierarchy.membus.pktCount::total      1074649                       # Packet count per connected requestor and responder (Count)
board.cache_hierarchy.membus.pktSize_board.processor.cores0.core.fetch1.icache_port::board.memory.mem_ctrl.port     13782080                       # Cumulative packet size per connected requestor and responder (Byte)
board.cache_hierarchy.membus.pktSize_board.processor.cores0.core.fetch1.icache_port::total     13782080                       # Cumulative packet size per connected requestor and responder (Byte)
board.cache_hierarchy.membus.pktSize_board.processor.cores0.core.execute.dcache_port::board.memory.mem_ctrl.port      1829609                       # Cumulative packet size per connected requestor and responder (Byte)
board.cache_hierarchy.membus.pktSize_board.processor.cores0.core.execute.dcache_port::total      1829609                       # Cumulative packet size per connected requestor and responder (Byte)
board.cache_hierarchy.membus.pktSize::total     15611689                       # Cumulative packet size per connected requestor and responder (Byte)
board.cache_hierarchy.membus.snoops                 0                       # Total snoops (Count)
board.cache_hierarchy.membus.snoopTraffic            0                       # Total snoop traffic (Byte)
board.cache_hierarchy.membus.snoopFanout::samples       537325                       # Request fanout histogram (Count)
board.cache_hierarchy.membus.snoopFanout::mean            0                       # Request fanout histogram (Count)
board.cache_hierarchy.membus.snoopFanout::stdev            0                       # Request fanout histogram (Count)
board.cache_hierarchy.membus.snoopFanout::underflows            0      0.00%      0.00% # Request fanout histogram (Count)
board.cache_hierarchy.membus.snoopFanout::0       537325    100.00%    100.00% # Request fanout histogram (Count)
board.cache_hierarchy.membus.snoopFanout::1            0      0.00%    100.00% # Request fanout histogram (Count)
board.cache_hierarchy.membus.snoopFanout::2            0      0.00%    100.00% # Request fanout histogram (Count)
board.cache_hierarchy.membus.snoopFanout::overflows            0      0.00%    100.00% # Request fanout histogram (Count)
board.cache_hierarchy.membus.snoopFanout::min_value            0                       # Request fanout histogram (Count)
board.cache_hierarchy.membus.snoopFanout::max_value            0                       # Request fanout histogram (Count)
board.cache_hierarchy.membus.snoopFanout::total       537325                       # Request fanout histogram (Count)
board.cache_hierarchy.membus.badaddr_responder.power_state.pwrStateResidencyTicks::UNDEFINED   9588976400                       # Cumulative time (in ticks) in various power states (Tick)
board.cache_hierarchy.membus.power_state.pwrStateResidencyTicks::UNDEFINED   9588976400                       # Cumulative time (in ticks) in various power states (Tick)
board.cache_hierarchy.membus.reqLayer0.occupancy    130406400                       # Layer occupancy (ticks) (Tick)
board.cache_hierarchy.membus.reqLayer0.utilization          0.0                       # Layer utilization (Ratio)
board.cache_hierarchy.membus.respLayer0.occupancy     97849000                       # Layer occupancy (ticks) (Tick)
board.cache_hierarchy.membus.respLayer0.utilization          0.0                       # Layer utilization (Ratio)
board.cache_hierarchy.membus.respLayer1.occupancy    115593200                       # Layer occupancy (ticks) (Tick)
board.cache_hierarchy.membus.respLayer1.utilization          0.0                       # Layer utilization (Ratio)
board.cache_hierarchy.membus.snoop_filter.totRequests            0                       # Total number of requests made to the snoop filter. (Count)
board.cache_hierarchy.membus.snoop_filter.hitSingleRequests            0                       # Number of requests hitting in the snoop filter with a single holder of the requested data. (Count)
board.cache_hierarchy.membus.snoop_filter.hitMultiRequests            0                       # Number of requests hitting in the snoop filter with multiple (>1) holders of the requested data. (Count)
board.cache_hierarchy.membus.snoop_filter.totSnoops            0                       # Total number of snoops made to the snoop filter. (Count)
board.cache_hierarchy.membus.snoop_filter.hitSingleSnoops            0                       # Number of snoops hitting in the snoop filter with a single holder of the requested data. (Count)
board.cache_hierarchy.membus.snoop_filter.hitMultiSnoops            0                       # Number of snoops hitting in the snoop filter with multiple (>1) holders of the requested data. (Count)
board.clk_domain.clock                            200                       # Clock period in ticks (Tick)
board.clk_domain.voltage_domain.voltage             1                       # Voltage in Volts (Volt)
board.memory.mem_ctrl.avgPriority_processor.cores0.core.inst::samples    215346.00                       # Average QoS priority value for accepted requests (Count)
board.memory.mem_ctrl.avgPriority_processor.cores0.core.data::samples    160735.00                       # Average QoS priority value for accepted requests (Count)
board.memory.mem_ctrl.priorityMinLatency 0.000000018750                       # per QoS priority minimum request to response latency (Second)
board.memory.mem_ctrl.priorityMaxLatency 0.003295932900                       # per QoS priority maximum request to response latency (Second)
board.memory.mem_ctrl.numReadWriteTurnArounds          198                       # Number of turnarounds from READ to WRITE (Count)
board.memory.mem_ctrl.numWriteReadTurnArounds          198                       # Number of turnarounds from WRITE to READ (Count)
board.memory.mem_ctrl.numStayReadState         862470                       # Number of times bus staying in READ state (Count)
board.memory.mem_ctrl.numStayWriteState          2973                       # Number of times bus staying in WRITE state (Count)
board.memory.mem_ctrl.readReqs                 422618                       # Number of read requests accepted (Count)
board.memory.mem_ctrl.writeReqs                114707                       # Number of write requests accepted (Count)
board.memory.mem_ctrl.readBursts               422618                       # Number of controller read bursts, including those serviced by the write queue (Count)
board.memory.mem_ctrl.writeBursts              114707                       # Number of controller write bursts, including those merged in the write queue (Count)
board.memory.mem_ctrl.servicedByWrQ             49729                       # Number of controller read bursts serviced by the write queue (Count)
board.memory.mem_ctrl.mergedWrBursts           111515                       # Number of controller write bursts merged with an existing one (Count)
board.memory.mem_ctrl.neitherReadNorWriteReqs            0                       # Number of requests that are neither read nor write (Count)
board.memory.mem_ctrl.avgRdQLen                  1.59                       # Average read queue length when enqueuing ((Count/Tick))
board.memory.mem_ctrl.avgWrQLen                 25.93                       # Average write queue length when enqueuing ((Count/Tick))
board.memory.mem_ctrl.numRdRetry                    0                       # Number of times read queue was full causing retry (Count)
board.memory.mem_ctrl.numWrRetry                    0                       # Number of times write queue was full causing retry (Count)
board.memory.mem_ctrl.readPktSize::0             7295                       # Read request sizes (log2) (Count)
board.memory.mem_ctrl.readPktSize::1            50015                       # Read request sizes (log2) (Count)
board.memory.mem_ctrl.readPktSize::2            43715                       # Read request sizes (log2) (Count)
board.memory.mem_ctrl.readPktSize::3           106247                       # Read request sizes (log2) (Count)
board.memory.mem_ctrl.readPktSize::4                0                       # Read request sizes (log2) (Count)
board.memory.mem_ctrl.readPktSize::5                0                       # Read request sizes (log2) (Count)
board.memory.mem_ctrl.readPktSize::6           215346                       # Read request sizes (log2) (Count)
board.memory.mem_ctrl.writePktSize::0              20                       # Write request sizes (log2) (Count)
board.memory.mem_ctrl.writePktSize::1           30004                       # Write request sizes (log2) (Count)
board.memory.mem_ctrl.writePktSize::2           10036                       # Write request sizes (log2) (Count)
board.memory.mem_ctrl.writePktSize::3           74647                       # Write request sizes (log2) (Count)
board.memory.mem_ctrl.writePktSize::4               0                       # Write request sizes (log2) (Count)
board.memory.mem_ctrl.writePktSize::5               0                       # Write request sizes (log2) (Count)
board.memory.mem_ctrl.writePktSize::6               0                       # Write request sizes (log2) (Count)
board.memory.mem_ctrl.rdQLenPdf::0             221377                       # What read queue length does an incoming req see (Count)
board.memory.mem_ctrl.rdQLenPdf::1             139550                       # What read queue length does an incoming req see (Count)
board.memory.mem_ctrl.rdQLenPdf::2              11962                       # What read queue length does an incoming req see (Count)
board.memory.mem_ctrl.rdQLenPdf::3                  0                       # What read queue length does an incoming req see (Count)
board.memory.mem_ctrl.rdQLenPdf::4                  0                       # What read queue length does an incoming req see (Count)
board.memory.mem_ctrl.rdQLenPdf::5                  0                       # What read queue length does an incoming req see (Count)
board.memory.mem_ctrl.rdQLenPdf::6                  0                       # What read queue length does an incoming req see (Count)
board.memory.mem_ctrl.rdQLenPdf::7                  0                       # What read queue length does an incoming req see (Count)
board.memory.mem_ctrl.rdQLenPdf::8                  0                       # What read queue length does an incoming req see (Count)
board.memory.mem_ctrl.rdQLenPdf::9                  0                       # What read queue length does an incoming req see (Count)
board.memory.mem_ctrl.rdQLenPdf::10                 0                       # What read queue length does an incoming req see (Count)
board.memory.mem_ctrl.rdQLenPdf::11                 0                       # What read queue length does an incoming req see (Count)
board.memory.mem_ctrl.rdQLenPdf::12                 0                       # What read queue length does an incoming req see (Count)
board.memory.mem_ctrl.rdQLenPdf::13                 0                       # What read queue length does an incoming req see (Count)
board.memory.mem_ctrl.rdQLenPdf::14                 0                       # What read queue length does an incoming req see (Count)
board.memory.mem_ctrl.rdQLenPdf::15                 0                       # What read queue length does an incoming req see (Count)
board.memory.mem_ctrl.rdQLenPdf::16                 0                       # What read queue length does an incoming req see (Count)
board.memory.mem_ctrl.rdQLenPdf::17                 0                       # What read queue length does an incoming req see (Count)
board.memory.mem_ctrl.rdQLenPdf::18                 0                       # What read queue length does an incoming req see (Count)
board.memory.mem_ctrl.rdQLenPdf::19                 0                       # What read queue length does an incoming req see (Count)
board.memory.mem_ctrl.rdQLenPdf::20                 0                       # What read queue length does an incoming req see (Count)
board.memory.mem_ctrl.rdQLenPdf::21                 0                       # What read queue length does an incoming req see (Count)
board.memory.mem_ctrl.rdQLenPdf::22                 0                       # What read queue length does an incoming req see (Count)
board.memory.mem_ctrl.rdQLenPdf::23                 0                       # What read queue length does an incoming req see (Count)
board.memory.mem_ctrl.rdQLenPdf::24                 0                       # What read queue length does an incoming req see (Count)
board.memory.mem_ctrl.rdQLenPdf::25                 0                       # What read queue length does an incoming req see (Count)
board.memory.mem_ctrl.rdQLenPdf::26                 0                       # What read queue length does an incoming req see (Count)
board.memory.mem_ctrl.rdQLenPdf::27                 0                       # What read queue length does an incoming req see (Count)
board.memory.mem_ctrl.rdQLenPdf::28                 0                       # What read queue length does an incoming req see (Count)
board.memory.mem_ctrl.rdQLenPdf::29                 0                       # What read queue length does an incoming req see (Count)
board.memory.mem_ctrl.rdQLenPdf::30                 0                       # What read queue length does an incoming req see (Count)
board.memory.mem_ctrl.rdQLenPdf::31                 0                       # What read queue length does an incoming req see (Count)
board.memory.mem_ctrl.wrQLenPdf::0                  1                       # What write queue length does an incoming req see (Count)
board.memory.mem_ctrl.wrQLenPdf::1                  1                       # What write queue length does an incoming req see (Count)
board.memory.mem_ctrl.wrQLenPdf::2                  1                       # What write queue length does an incoming req see (Count)
board.memory.mem_ctrl.wrQLenPdf::3                  1                       # What write queue length does an incoming req see (Count)
board.memory.mem_ctrl.wrQLenPdf::4                  1                       # What write queue length does an incoming req see (Count)
board.memory.mem_ctrl.wrQLenPdf::5                  1                       # What write queue length does an incoming req see (Count)
board.memory.mem_ctrl.wrQLenPdf::6                  1                       # What write queue length does an incoming req see (Count)
board.memory.mem_ctrl.wrQLenPdf::7                  1                       # What write queue length does an incoming req see (Count)
board.memory.mem_ctrl.wrQLenPdf::8                  1                       # What write queue length does an incoming req see (Count)
board.memory.mem_ctrl.wrQLenPdf::9                  1                       # What write queue length does an incoming req see (Count)
board.memory.mem_ctrl.wrQLenPdf::10                 1                       # What write queue length does an incoming req see (Count)
board.memory.mem_ctrl.wrQLenPdf::11                 1                       # What write queue length does an incoming req see (Count)
board.memory.mem_ctrl.wrQLenPdf::12                 1                       # What write queue length does an incoming req see (Count)
board.memory.mem_ctrl.wrQLenPdf::13                 1                       # What write queue length does an incoming req see (Count)
board.memory.mem_ctrl.wrQLenPdf::14                 1                       # What write queue length does an incoming req see (Count)
board.memory.mem_ctrl.wrQLenPdf::15                 1                       # What write queue length does an incoming req see (Count)
board.memory.mem_ctrl.wrQLenPdf::16                 1                       # What write queue length does an incoming req see (Count)
board.memory.mem_ctrl.wrQLenPdf::17               195                       # What write queue length does an incoming req see (Count)
board.memory.mem_ctrl.wrQLenPdf::18               198                       # What write queue length does an incoming req see (Count)
board.memory.mem_ctrl.wrQLenPdf::19               198                       # What write queue length does an incoming req see (Count)
board.memory.mem_ctrl.wrQLenPdf::20               198                       # What write queue length does an incoming req see (Count)
board.memory.mem_ctrl.wrQLenPdf::21               199                       # What write queue length does an incoming req see (Count)
board.memory.mem_ctrl.wrQLenPdf::22               199                       # What write queue length does an incoming req see (Count)
board.memory.mem_ctrl.wrQLenPdf::23               199                       # What write queue length does an incoming req see (Count)
board.memory.mem_ctrl.wrQLenPdf::24               199                       # What write queue length does an incoming req see (Count)
board.memory.mem_ctrl.wrQLenPdf::25               199                       # What write queue length does an incoming req see (Count)
board.memory.mem_ctrl.wrQLenPdf::26               199                       # What write queue length does an incoming req see (Count)
board.memory.mem_ctrl.wrQLenPdf::27               201                       # What write queue length does an incoming req see (Count)
board.memory.mem_ctrl.wrQLenPdf::28               199                       # What write queue length does an incoming req see (Count)
board.memory.mem_ctrl.wrQLenPdf::29               198                       # What write queue length does an incoming req see (Count)
board.memory.mem_ctrl.wrQLenPdf::30               198                       # What write queue length does an incoming req see (Count)
board.memory.mem_ctrl.wrQLenPdf::31               198                       # What write queue length does an incoming req see (Count)
board.memory.mem_ctrl.wrQLenPdf::32               198                       # What write queue length does an incoming req see (Count)
board.memory.mem_ctrl.wrQLenPdf::33                 0                       # What write queue length does an incoming req see (Count)
board.memory.mem_ctrl.wrQLenPdf::34                 0                       # What write queue length does an incoming req see (Count)
board.memory.mem_ctrl.wrQLenPdf::35                 0                       # What write queue length does an incoming req see (Count)
board.memory.mem_ctrl.wrQLenPdf::36                 0                       # What write queue length does an incoming req see (Count)
board.memory.mem_ctrl.wrQLenPdf::37                 0                       # What write queue length does an incoming req see (Count)
board.memory.mem_ctrl.wrQLenPdf::38                 0                       # What write queue length does an incoming req see (Count)
board.memory.mem_ctrl.wrQLenPdf::39                 0                       # What write queue length does an incoming req see (Count)
board.memory.mem_ctrl.wrQLenPdf::40                 0                       # What write queue length does an incoming req see (Count)
board.memory.mem_ctrl.wrQLenPdf::41                 0                       # What write queue length does an incoming req see (Count)
board.memory.mem_ctrl.wrQLenPdf::42                 0                       # What write queue length does an incoming req see (Count)
board.memory.mem_ctrl.wrQLenPdf::43                 0                       # What write queue length does an incoming req see (Count)
board.memory.mem_ctrl.wrQLenPdf::44                 0                       # What write queue length does an incoming req see (Count)
board.memory.mem_ctrl.wrQLenPdf::45                 0                       # What write queue length does an incoming req see (Count)
board.memory.mem_ctrl.wrQLenPdf::46                 0                       # What write queue length does an incoming req see (Count)
board.memory.mem_ctrl.wrQLenPdf::47                 0                       # What write queue length does an incoming req see (Count)
board.memory.mem_ctrl.wrQLenPdf::48                 0                       # What write queue length does an incoming req see (Count)
board.memory.mem_ctrl.wrQLenPdf::49                 0                       # What write queue length does an incoming req see (Count)
board.memory.mem_ctrl.wrQLenPdf::50                 0                       # What write queue length does an incoming req see (Count)
board.memory.mem_ctrl.wrQLenPdf::51                 0                       # What write queue length does an incoming req see (Count)
board.memory.mem_ctrl.wrQLenPdf::52                 0                       # What write queue length does an incoming req see (Count)
board.memory.mem_ctrl.wrQLenPdf::53                 0                       # What write queue length does an incoming req see (Count)
board.memory.mem_ctrl.wrQLenPdf::54                 0                       # What write queue length does an incoming req see (Count)
board.memory.mem_ctrl.wrQLenPdf::55                 0                       # What write queue length does an incoming req see (Count)
board.memory.mem_ctrl.wrQLenPdf::56                 0                       # What write queue length does an incoming req see (Count)
board.memory.mem_ctrl.wrQLenPdf::57                 0                       # What write queue length does an incoming req see (Count)
board.memory.mem_ctrl.wrQLenPdf::58                 0                       # What write queue length does an incoming req see (Count)
board.memory.mem_ctrl.wrQLenPdf::59                 0                       # What write queue length does an incoming req see (Count)
board.memory.mem_ctrl.wrQLenPdf::60                 0                       # What write queue length does an incoming req see (Count)
board.memory.mem_ctrl.wrQLenPdf::61                 0                       # What write queue length does an incoming req see (Count)
board.memory.mem_ctrl.wrQLenPdf::62                 0                       # What write queue length does an incoming req see (Count)
board.memory.mem_ctrl.wrQLenPdf::63                 0                       # What write queue length does an incoming req see (Count)
board.memory.mem_ctrl.rdPerTurnAround::samples          198                       # Reads before turning the bus around for writes (Count)
board.memory.mem_ctrl.rdPerTurnAround::mean  1879.792929                       # Reads before turning the bus around for writes (Count)
board.memory.mem_ctrl.rdPerTurnAround::gmean  1601.515140                       # Reads before turning the bus around for writes (Count)
board.memory.mem_ctrl.rdPerTurnAround::stdev  3421.163475                       # Reads before turning the bus around for writes (Count)
board.memory.mem_ctrl.rdPerTurnAround::0-2047          197     99.49%     99.49% # Reads before turning the bus around for writes (Count)
board.memory.mem_ctrl.rdPerTurnAround::49152-51199            1      0.51%    100.00% # Reads before turning the bus around for writes (Count)
board.memory.mem_ctrl.rdPerTurnAround::total          198                       # Reads before turning the bus around for writes (Count)
board.memory.mem_ctrl.wrPerTurnAround::samples          198                       # Writes before turning the bus around for reads (Count)
board.memory.mem_ctrl.wrPerTurnAround::mean           16                       # Writes before turning the bus around for reads (Count)
board.memory.mem_ctrl.wrPerTurnAround::gmean    16.000000                       # Writes before turning the bus around for reads (Count)
board.memory.mem_ctrl.wrPerTurnAround::16          198    100.00%    100.00% # Writes before turning the bus around for reads (Count)
board.memory.mem_ctrl.wrPerTurnAround::total          198                       # Writes before turning the bus around for reads (Count)
board.memory.mem_ctrl.bytesReadWrQ            3182656                       # Total number of bytes read from write queue (Byte)
board.memory.mem_ctrl.bytesReadSys           14914305                       # Total read bytes from the system interface side (Byte)
board.memory.mem_ctrl.bytesWrittenSys          697348                       # Total written bytes from the system interface side (Byte)
board.memory.mem_ctrl.avgRdBWSys         1555359443.78797317                       # Average system read bandwidth in Byte/s ((Byte/Second))
board.memory.mem_ctrl.avgWrBWSys         72723924.94364676                       # Average system write bandwidth in Byte/s ((Byte/Second))
board.memory.mem_ctrl.totGap               9588975200                       # Total gap between requests (Tick)
board.memory.mem_ctrl.avgGap                 17845.76                       # Average gap between requests ((Tick/Count))
board.memory.mem_ctrl.requestorReadBytes::processor.cores0.core.inst     13782144                       # Per-requestor bytes read from memory (Byte)
board.memory.mem_ctrl.requestorReadBytes::processor.cores0.core.data       912391                       # Per-requestor bytes read from memory (Byte)
board.memory.mem_ctrl.requestorWriteBytes::processor.cores0.core.data        23871                       # Per-requestor bytes write to memory (Byte)
board.memory.mem_ctrl.requestorReadRate::processor.cores0.core.inst 1437290428.621766328812                       # Per-requestor bytes read from memory rate ((Byte/Second))
board.memory.mem_ctrl.requestorReadRate::processor.cores0.core.data 95149989.106240794063                       # Per-requestor bytes read from memory rate ((Byte/Second))
board.memory.mem_ctrl.requestorWriteRate::processor.cores0.core.data 2489421.081482691225                       # Per-requestor bytes write to memory rate ((Byte/Second))
board.memory.mem_ctrl.requestorReadAccesses::processor.cores0.core.inst       215346                       # Per-requestor read serviced memory accesses (Count)
board.memory.mem_ctrl.requestorReadAccesses::processor.cores0.core.data       207272                       # Per-requestor read serviced memory accesses (Count)
board.memory.mem_ctrl.requestorWriteAccesses::processor.cores0.core.data       114707                       # Per-requestor write serviced memory accesses (Count)
board.memory.mem_ctrl.requestorReadTotalLat::processor.cores0.core.inst   4656475150                       # Per-requestor read total memory access latency (Tick)
board.memory.mem_ctrl.requestorReadTotalLat::processor.cores0.core.data   3707330800                       # Per-requestor read total memory access latency (Tick)
board.memory.mem_ctrl.requestorWriteTotalLat::processor.cores0.core.data 245189807700                       # Per-requestor write total memory access latency (Tick)
board.memory.mem_ctrl.requestorReadAvgLat::processor.cores0.core.inst     21623.23                       # Per-requestor read average memory access latency ((Tick/Count))
board.memory.mem_ctrl.requestorReadAvgLat::processor.cores0.core.data     17886.31                       # Per-requestor read average memory access latency ((Tick/Count))
board.memory.mem_ctrl.requestorWriteAvgLat::processor.cores0.core.data   2137531.34                       # Per-requestor write average memory access latency ((Tick/Count))
board.memory.mem_ctrl.dram.bytesRead::processor.cores0.core.inst     13782080                       # Number of bytes read from this memory (Byte)
board.memory.mem_ctrl.dram.bytesRead::processor.cores0.core.data      1132161                       # Number of bytes read from this memory (Byte)
board.memory.mem_ctrl.dram.bytesRead::total     14914241                       # Number of bytes read from this memory (Byte)
board.memory.mem_ctrl.dram.bytesInstRead::processor.cores0.core.inst     13782080                       # Number of instructions bytes read from this memory (Byte)
board.memory.mem_ctrl.dram.bytesInstRead::total     13782080                       # Number of instructions bytes read from this memory (Byte)
board.memory.mem_ctrl.dram.bytesWritten::processor.cores0.core.data       697248                       # Number of bytes written to this memory (Byte)
board.memory.mem_ctrl.dram.bytesWritten::total       697248                       # Number of bytes written to this memory (Byte)
board.memory.mem_ctrl.dram.numReads::processor.cores0.core.inst       215345                       # Number of read requests responded to by this memory (Count)
board.memory.mem_ctrl.dram.numReads::processor.cores0.core.data       207272                       # Number of read requests responded to by this memory (Count)
board.memory.mem_ctrl.dram.numReads::total       422617                       # Number of read requests responded to by this memory (Count)
board.memory.mem_ctrl.dram.numWrites::processor.cores0.core.data       114693                       # Number of write requests responded to by this memory (Count)
board.memory.mem_ctrl.dram.numWrites::total       114693                       # Number of write requests responded to by this memory (Count)
board.memory.mem_ctrl.dram.bwRead::processor.cores0.core.inst   1437283754                       # Total read bandwidth from this memory ((Byte/Second))
board.memory.mem_ctrl.dram.bwRead::processor.cores0.core.data    118069015                       # Total read bandwidth from this memory ((Byte/Second))
board.memory.mem_ctrl.dram.bwRead::total   1555352769                       # Total read bandwidth from this memory ((Byte/Second))
board.memory.mem_ctrl.dram.bwInstRead::processor.cores0.core.inst   1437283754                       # Instruction read bandwidth from this memory ((Byte/Second))
board.memory.mem_ctrl.dram.bwInstRead::total   1437283754                       # Instruction read bandwidth from this memory ((Byte/Second))
board.memory.mem_ctrl.dram.bwWrite::processor.cores0.core.data     72713496                       # Write bandwidth from this memory ((Byte/Second))
board.memory.mem_ctrl.dram.bwWrite::total     72713496                       # Write bandwidth from this memory ((Byte/Second))
board.memory.mem_ctrl.dram.bwTotal::processor.cores0.core.inst   1437283754                       # Total bandwidth to/from this memory ((Byte/Second))
board.memory.mem_ctrl.dram.bwTotal::processor.cores0.core.data    190782511                       # Total bandwidth to/from this memory ((Byte/Second))
board.memory.mem_ctrl.dram.bwTotal::total   1628066266                       # Total bandwidth to/from this memory ((Byte/Second))
board.memory.mem_ctrl.dram.readBursts          372889                       # Number of DRAM read bursts (Count)
board.memory.mem_ctrl.dram.writeBursts           3168                       # Number of DRAM write bursts (Count)
board.memory.mem_ctrl.dram.perBankRdBursts::0       181588                       # Per bank write bursts (Count)
board.memory.mem_ctrl.dram.perBankRdBursts::1         1943                       # Per bank write bursts (Count)
board.memory.mem_ctrl.dram.perBankRdBursts::2        11757                       # Per bank write bursts (Count)
board.memory.mem_ctrl.dram.perBankRdBursts::3          742                       # Per bank write bursts (Count)
board.memory.mem_ctrl.dram.perBankRdBursts::4          409                       # Per bank write bursts (Count)
board.memory.mem_ctrl.dram.perBankRdBursts::5          202                       # Per bank write bursts (Count)
board.memory.mem_ctrl.dram.perBankRdBursts::6        50182                       # Per bank write bursts (Count)
board.memory.mem_ctrl.dram.perBankRdBursts::7           21                       # Per bank write bursts (Count)
board.memory.mem_ctrl.dram.perBankRdBursts::8           79                       # Per bank write bursts (Count)
board.memory.mem_ctrl.dram.perBankRdBursts::9        86079                       # Per bank write bursts (Count)
board.memory.mem_ctrl.dram.perBankRdBursts::10          376                       # Per bank write bursts (Count)
board.memory.mem_ctrl.dram.perBankRdBursts::11            6                       # Per bank write bursts (Count)
board.memory.mem_ctrl.dram.perBankRdBursts::12         2373                       # Per bank write bursts (Count)
board.memory.mem_ctrl.dram.perBankRdBursts::13         1382                       # Per bank write bursts (Count)
board.memory.mem_ctrl.dram.perBankRdBursts::14        34450                       # Per bank write bursts (Count)
board.memory.mem_ctrl.dram.perBankRdBursts::15         1300                       # Per bank write bursts (Count)
board.memory.mem_ctrl.dram.perBankWrBursts::0          128                       # Per bank write bursts (Count)
board.memory.mem_ctrl.dram.perBankWrBursts::1          150                       # Per bank write bursts (Count)
board.memory.mem_ctrl.dram.perBankWrBursts::2          128                       # Per bank write bursts (Count)
board.memory.mem_ctrl.dram.perBankWrBursts::3          146                       # Per bank write bursts (Count)
board.memory.mem_ctrl.dram.perBankWrBursts::4          133                       # Per bank write bursts (Count)
board.memory.mem_ctrl.dram.perBankWrBursts::5          185                       # Per bank write bursts (Count)
board.memory.mem_ctrl.dram.perBankWrBursts::6          264                       # Per bank write bursts (Count)
board.memory.mem_ctrl.dram.perBankWrBursts::7          132                       # Per bank write bursts (Count)
board.memory.mem_ctrl.dram.perBankWrBursts::8          146                       # Per bank write bursts (Count)
board.memory.mem_ctrl.dram.perBankWrBursts::9          479                       # Per bank write bursts (Count)
board.memory.mem_ctrl.dram.perBankWrBursts::10          186                       # Per bank write bursts (Count)
board.memory.mem_ctrl.dram.perBankWrBursts::11          200                       # Per bank write bursts (Count)
board.memory.mem_ctrl.dram.perBankWrBursts::12          256                       # Per bank write bursts (Count)
board.memory.mem_ctrl.dram.perBankWrBursts::13          256                       # Per bank write bursts (Count)
board.memory.mem_ctrl.dram.perBankWrBursts::14          248                       # Per bank write bursts (Count)
board.memory.mem_ctrl.dram.perBankWrBursts::15          131                       # Per bank write bursts (Count)
board.memory.mem_ctrl.dram.totQLat         1372137200                       # Total ticks spent queuing (Tick)
board.memory.mem_ctrl.dram.totBusLat       1864445000                       # Total ticks spent in databus transfers (Tick)
board.memory.mem_ctrl.dram.totMemAccLat    8363805950                       # Total ticks spent from burst creation until serviced by the DRAM (Tick)
board.memory.mem_ctrl.dram.avgQLat            3679.75                       # Average queueing delay per DRAM burst ((Tick/Count))
board.memory.mem_ctrl.dram.avgBusLat          5000.00                       # Average bus latency per DRAM burst ((Tick/Count))
board.memory.mem_ctrl.dram.avgMemAccLat      22429.75                       # Average memory access latency per DRAM burst ((Tick/Count))
board.memory.mem_ctrl.dram.readRowHits         344635                       # Number of row buffer hits during reads (Count)
board.memory.mem_ctrl.dram.writeRowHits          2907                       # Number of row buffer hits during writes (Count)
board.memory.mem_ctrl.dram.readRowHitRate        92.42                       # Row buffer hit rate for reads (Ratio)
board.memory.mem_ctrl.dram.writeRowHitRate        91.76                       # Row buffer hit rate for writes (Ratio)
board.memory.mem_ctrl.dram.bytesPerActivate::samples        28511                       # Bytes accessed per row activation (Byte)
board.memory.mem_ctrl.dram.bytesPerActivate::mean   844.083477                       # Bytes accessed per row activation (Byte)
board.memory.mem_ctrl.dram.bytesPerActivate::gmean   662.601316                       # Bytes accessed per row activation (Byte)
board.memory.mem_ctrl.dram.bytesPerActivate::stdev   341.107981                       # Bytes accessed per row activation (Byte)
board.memory.mem_ctrl.dram.bytesPerActivate::0-127         3198     11.22%     11.22% # Bytes accessed per row activation (Byte)
board.memory.mem_ctrl.dram.bytesPerActivate::128-255         1038      3.64%     14.86% # Bytes accessed per row activation (Byte)
board.memory.mem_ctrl.dram.bytesPerActivate::256-383          193      0.68%     15.53% # Bytes accessed per row activation (Byte)
board.memory.mem_ctrl.dram.bytesPerActivate::384-511          157      0.55%     16.09% # Bytes accessed per row activation (Byte)
board.memory.mem_ctrl.dram.bytesPerActivate::512-639          533      1.87%     17.95% # Bytes accessed per row activation (Byte)
board.memory.mem_ctrl.dram.bytesPerActivate::640-767         1236      4.34%     22.29% # Bytes accessed per row activation (Byte)
board.memory.mem_ctrl.dram.bytesPerActivate::768-895          469      1.64%     23.93% # Bytes accessed per row activation (Byte)
board.memory.mem_ctrl.dram.bytesPerActivate::896-1023          925      3.24%     27.18% # Bytes accessed per row activation (Byte)
board.memory.mem_ctrl.dram.bytesPerActivate::1024-1151        20762     72.82%    100.00% # Bytes accessed per row activation (Byte)
board.memory.mem_ctrl.dram.bytesPerActivate::total        28511                       # Bytes accessed per row activation (Byte)
board.memory.mem_ctrl.dram.bytesRead         23864896                       # Total bytes read (Byte)
board.memory.mem_ctrl.dram.bytesWritten        202752                       # Total bytes written (Byte)
board.memory.mem_ctrl.dram.avgRdBW        2488.784517                       # Average DRAM read bandwidth in MiBytes/s ((Byte/Second))
board.memory.mem_ctrl.dram.avgWrBW          21.144280                       # Average DRAM write bandwidth in MiBytes/s ((Byte/Second))
board.memory.mem_ctrl.dram.peakBW            12800.00                       # Theoretical peak bandwidth in MiByte/s ((Byte/Second))
board.memory.mem_ctrl.dram.busUtil              19.61                       # Data bus utilization in percentage (Ratio)
board.memory.mem_ctrl.dram.busUtilRead          19.44                       # Data bus utilization in percentage for reads (Ratio)
board.memory.mem_ctrl.dram.busUtilWrite          0.17                       # Data bus utilization in percentage for writes (Ratio)
board.memory.mem_ctrl.dram.pageHitRate          92.42                       # Row buffer hit rate, read and write combined (Ratio)
board.memory.mem_ctrl.dram.power_state.pwrStateResidencyTicks::UNDEFINED   9588976400                       # Cumulative time (in ticks) in various power states (Tick)
board.memory.mem_ctrl.dram.rank0.actEnergy    122900820                       # Energy for activate commands per rank (pJ) (Joule)
board.memory.mem_ctrl.dram.rank0.preEnergy     65311950                       # Energy for precharge commands per rank (pJ) (Joule)
board.memory.mem_ctrl.dram.rank0.readEnergy   1762466160                       # Energy for read commands per rank (pJ) (Joule)
board.memory.mem_ctrl.dram.rank0.writeEnergy      6608520                       # Energy for write commands per rank (pJ) (Joule)
board.memory.mem_ctrl.dram.rank0.refreshEnergy 756621840.000000                       # Energy for refresh commands per rank (pJ) (Joule)
board.memory.mem_ctrl.dram.rank0.actBackEnergy   3982772400                       # Energy for active background per rank (pJ) (Joule)
board.memory.mem_ctrl.dram.rank0.preBackEnergy    328253760                       # Energy for precharge background per rank (pJ) (Joule)
board.memory.mem_ctrl.dram.rank0.actPowerDownEnergy            0                       # Energy for active power-down per rank (pJ) (Joule)
board.memory.mem_ctrl.dram.rank0.prePowerDownEnergy            0                       # Energy for precharge power-down per rank (pJ) (Joule)
board.memory.mem_ctrl.dram.rank0.selfRefreshEnergy            0                       # Energy for self refresh per rank (pJ) (Joule)
board.memory.mem_ctrl.dram.rank0.totalEnergy   7024935450                       # Total energy per rank (pJ) (Joule)
board.memory.mem_ctrl.dram.rank0.averagePower   732.605354                       # Core power per rank (mW) (Watt)
board.memory.mem_ctrl.dram.rank0.totalIdleTime            0                       # Total Idle time Per DRAM Rank (Tick)
board.memory.mem_ctrl.dram.rank0.pwrStateTime::IDLE    819142100                       # Time in different power states (Tick)
board.memory.mem_ctrl.dram.rank0.pwrStateTime::REF    320060000                       # Time in different power states (Tick)
board.memory.mem_ctrl.dram.rank0.pwrStateTime::SREF            0                       # Time in different power states (Tick)
board.memory.mem_ctrl.dram.rank0.pwrStateTime::PRE_PDN            0                       # Time in different power states (Tick)
board.memory.mem_ctrl.dram.rank0.pwrStateTime::ACT   8449774300                       # Time in different power states (Tick)
board.memory.mem_ctrl.dram.rank0.pwrStateTime::ACT_PDN            0                       # Time in different power states (Tick)
board.memory.mem_ctrl.dram.rank1.actEnergy     80696280                       # Energy for activate commands per rank (pJ) (Joule)
board.memory.mem_ctrl.dram.rank1.preEnergy     42887295                       # Energy for precharge commands per rank (pJ) (Joule)
board.memory.mem_ctrl.dram.rank1.readEnergy    899961300                       # Energy for read commands per rank (pJ) (Joule)
board.memory.mem_ctrl.dram.rank1.writeEnergy      9928440                       # Energy for write commands per rank (pJ) (Joule)
board.memory.mem_ctrl.dram.rank1.refreshEnergy 756621840.000000                       # Energy for refresh commands per rank (pJ) (Joule)
board.memory.mem_ctrl.dram.rank1.actBackEnergy   3878020080                       # Energy for active background per rank (pJ) (Joule)
board.memory.mem_ctrl.dram.rank1.preBackEnergy    416466240                       # Energy for precharge background per rank (pJ) (Joule)
board.memory.mem_ctrl.dram.rank1.actPowerDownEnergy            0                       # Energy for active power-down per rank (pJ) (Joule)
board.memory.mem_ctrl.dram.rank1.prePowerDownEnergy            0                       # Energy for precharge power-down per rank (pJ) (Joule)
board.memory.mem_ctrl.dram.rank1.selfRefreshEnergy            0                       # Energy for self refresh per rank (pJ) (Joule)
board.memory.mem_ctrl.dram.rank1.totalEnergy   6084581475                       # Total energy per rank (pJ) (Joule)
board.memory.mem_ctrl.dram.rank1.averagePower   634.539206                       # Core power per rank (mW) (Watt)
board.memory.mem_ctrl.dram.rank1.totalIdleTime            0                       # Total Idle time Per DRAM Rank (Tick)
board.memory.mem_ctrl.dram.rank1.pwrStateTime::IDLE    994701700                       # Time in different power states (Tick)
board.memory.mem_ctrl.dram.rank1.pwrStateTime::REF    320060000                       # Time in different power states (Tick)
board.memory.mem_ctrl.dram.rank1.pwrStateTime::SREF            0                       # Time in different power states (Tick)
board.memory.mem_ctrl.dram.rank1.pwrStateTime::PRE_PDN            0                       # Time in different power states (Tick)
board.memory.mem_ctrl.dram.rank1.pwrStateTime::ACT   8274214700                       # Time in different power states (Tick)
board.memory.mem_ctrl.dram.rank1.pwrStateTime::ACT_PDN            0                       # Time in different power states (Tick)
board.memory.mem_ctrl.power_state.pwrStateResidencyTicks::UNDEFINED   9588976400                       # Cumulative time (in ticks) in various power states (Tick)
board.processor.cores0.core.numCycles        47944882                       # Number of cpu cycles simulated (Cycle)
board.processor.cores0.core.cpi             47.312550                       # CPI: cycles per instruction (core level) ((Cycle/Count))
board.processor.cores0.core.ipc              0.021136                       # IPC: instructions per cycle (core level) ((Count/Cycle))
board.processor.cores0.core.numWorkItemsStarted            0                       # Number of work items this cpu started (Count)
board.processor.cores0.core.numWorkItemsCompleted            0                       # Number of work items this cpu completed (Count)
board.processor.cores0.core.branchPred.lookups       120124                       # Number of BP lookups (Count)
board.processor.cores0.core.branchPred.condPredicted        51318                       # Number of conditional branches predicted (Count)
board.processor.cores0.core.branchPred.condIncorrect          488                       # Number of conditional branches incorrect (Count)
board.processor.cores0.core.branchPred.BTBLookups        50974                       # Number of BTB lookups (Count)
board.processor.cores0.core.branchPred.BTBUpdates          415                       # Number of BTB updates (Count)
board.processor.cores0.core.branchPred.BTBHits        50237                       # Number of BTB hits (Count)
board.processor.cores0.core.branchPred.BTBHitRatio     0.985542                       # BTB Hit Ratio (Ratio)
board.processor.cores0.core.branchPred.RASUsed        32001                       # Number of times the RAS was used to get a target. (Count)
board.processor.cores0.core.branchPred.RASIncorrect            3                       # Number of incorrect RAS predictions. (Count)
board.processor.cores0.core.branchPred.indirectLookups         1794                       # Number of indirect predictor lookups. (Count)
board.processor.cores0.core.branchPred.indirectHits         1750                       # Number of indirect target hits. (Count)
board.processor.cores0.core.branchPred.indirectMisses           44                       # Number of indirect misses. (Count)
board.processor.cores0.core.branchPred.indirectMispredicted           25                       # Number of mispredicted indirect branches. (Count)
board.processor.cores0.core.commitStats0.numInsts      1013365                       # Number of instructions committed (thread level) (Count)
board.processor.cores0.core.commitStats0.numOps      1013371                       # Number of ops (including micro ops) committed (thread level) (Count)
board.processor.cores0.core.commitStats0.numInstsNotNOP            0                       # Number of instructions committed excluding NOPs or prefetches (Count)
board.processor.cores0.core.commitStats0.numOpsNotNOP            0                       # Number of Ops (including micro ops) Simulated (Count)
board.processor.cores0.core.commitStats0.cpi    47.312550                       # CPI: cycles per instruction (thread level) ((Cycle/Count))
board.processor.cores0.core.commitStats0.ipc     0.021136                       # IPC: instructions per cycle (thread level) ((Count/Cycle))
board.processor.cores0.core.commitStats0.numMemRefs            0                       # Number of memory references committed (Count)
board.processor.cores0.core.commitStats0.numFpInsts            0                       # Number of float instructions (Count)
board.processor.cores0.core.commitStats0.numIntInsts            0                       # Number of integer instructions (Count)
board.processor.cores0.core.commitStats0.numLoadInsts            0                       # Number of load instructions (Count)
board.processor.cores0.core.commitStats0.numStoreInsts            0                       # Number of store instructions (Count)
board.processor.cores0.core.commitStats0.numVecInsts            0                       # Number of vector instructions (Count)
board.processor.cores0.core.commitStats0.committedInstType::No_OpClass           34      0.00%      0.00% # Class of committed instruction. (Count)
board.processor.cores0.core.commitStats0.committedInstType::IntAlu       601518     59.36%     59.36% # Class of committed instruction. (Count)
board.processor.cores0.core.commitStats0.committedInstType::IntMult        10004      0.99%     60.35% # Class of committed instruction. (Count)
board.processor.cores0.core.commitStats0.committedInstType::IntDiv            3      0.00%     60.35% # Class of committed instruction. (Count)
board.processor.cores0.core.commitStats0.committedInstType::FloatAdd        10000      0.99%     61.34% # Class of committed instruction. (Count)
board.processor.cores0.core.commitStats0.committedInstType::FloatCmp            0      0.00%     61.34% # Class of committed instruction. (Count)
board.processor.cores0.core.commitStats0.committedInstType::FloatCvt        10000      0.99%     62.32% # Class of committed instruction. (Count)
board.processor.cores0.core.commitStats0.committedInstType::FloatMult            0      0.00%     62.32% # Class of committed instruction. (Count)
board.processor.cores0.core.commitStats0.committedInstType::FloatMultAcc            0      0.00%     62.32% # Class of committed instruction. (Count)
board.processor.cores0.core.commitStats0.committedInstType::FloatDiv            0      0.00%     62.32% # Class of committed instruction. (Count)
board.processor.cores0.core.commitStats0.committedInstType::FloatMisc        10000      0.99%     63.31% # Class of committed instruction. (Count)
board.processor.cores0.core.commitStats0.committedInstType::FloatSqrt            0      0.00%     63.31% # Class of committed instruction. (Count)
board.processor.cores0.core.commitStats0.committedInstType::SimdAdd            0      0.00%     63.31% # Class of committed instruction. (Count)
board.processor.cores0.core.commitStats0.committedInstType::SimdAddAcc            0      0.00%     63.31% # Class of committed instruction. (Count)
board.processor.cores0.core.commitStats0.committedInstType::SimdAlu            0      0.00%     63.31% # Class of committed instruction. (Count)
board.processor.cores0.core.commitStats0.committedInstType::SimdCmp            0      0.00%     63.31% # Class of committed instruction. (Count)
board.processor.cores0.core.commitStats0.committedInstType::SimdCvt            0      0.00%     63.31% # Class of committed instruction. (Count)
board.processor.cores0.core.commitStats0.committedInstType::SimdMisc            0      0.00%     63.31% # Class of committed instruction. (Count)
board.processor.cores0.core.commitStats0.committedInstType::SimdMult            0      0.00%     63.31% # Class of committed instruction. (Count)
board.processor.cores0.core.commitStats0.committedInstType::SimdMultAcc            0      0.00%     63.31% # Class of committed instruction. (Count)
board.processor.cores0.core.commitStats0.committedInstType::SimdMatMultAcc            0      0.00%     63.31% # Class of committed instruction. (Count)
board.processor.cores0.core.commitStats0.committedInstType::SimdShift            0      0.00%     63.31% # Class of committed instruction. (Count)
board.processor.cores0.core.commitStats0.committedInstType::SimdShiftAcc            0      0.00%     63.31% # Class of committed instruction. (Count)
board.processor.cores0.core.commitStats0.committedInstType::SimdDiv            0      0.00%     63.31% # Class of committed instruction. (Count)
board.processor.cores0.core.commitStats0.committedInstType::SimdSqrt            0      0.00%     63.31% # Class of committed instruction. (Count)
board.processor.cores0.core.commitStats0.committedInstType::SimdFloatAdd            0      0.00%     63.31% # Class of committed instruction. (Count)
board.processor.cores0.core.commitStats0.committedInstType::SimdFloatAlu            0      0.00%     63.31% # Class of committed instruction. (Count)
board.processor.cores0.core.commitStats0.committedInstType::SimdFloatCmp            0      0.00%     63.31% # Class of committed instruction. (Count)
board.processor.cores0.core.commitStats0.committedInstType::SimdFloatCvt            0      0.00%     63.31% # Class of committed instruction. (Count)
board.processor.cores0.core.commitStats0.committedInstType::SimdFloatDiv            0      0.00%     63.31% # Class of committed instruction. (Count)
board.processor.cores0.core.commitStats0.committedInstType::SimdFloatMisc            0      0.00%     63.31% # Class of committed instruction. (Count)
board.processor.cores0.core.commitStats0.committedInstType::SimdFloatMult            0      0.00%     63.31% # Class of committed instruction. (Count)
board.processor.cores0.core.commitStats0.committedInstType::SimdFloatMultAcc            0      0.00%     63.31% # Class of committed instruction. (Count)
board.processor.cores0.core.commitStats0.committedInstType::SimdFloatMatMultAcc            0      0.00%     63.31% # Class of committed instruction. (Count)
board.processor.cores0.core.commitStats0.committedInstType::SimdFloatSqrt            0      0.00%     63.31% # Class of committed instruction. (Count)
board.processor.cores0.core.commitStats0.committedInstType::SimdReduceAdd            0      0.00%     63.31% # Class of committed instruction. (Count)
board.processor.cores0.core.commitStats0.committedInstType::SimdReduceAlu            0      0.00%     63.31% # Class of committed instruction. (Count)
board.processor.cores0.core.commitStats0.committedInstType::SimdReduceCmp            0      0.00%     63.31% # Class of committed instruction. (Count)
board.processor.cores0.core.commitStats0.committedInstType::SimdFloatReduceAdd            0      0.00%     63.31% # Class of committed instruction. (Count)
board.processor.cores0.core.commitStats0.committedInstType::SimdFloatReduceCmp            0      0.00%     63.31% # Class of committed instruction. (Count)
board.processor.cores0.core.commitStats0.committedInstType::SimdAes            0      0.00%     63.31% # Class of committed instruction. (Count)
board.processor.cores0.core.commitStats0.committedInstType::SimdAesMix            0      0.00%     63.31% # Class of committed instruction. (Count)
board.processor.cores0.core.commitStats0.committedInstType::SimdSha1Hash            0      0.00%     63.31% # Class of committed instruction. (Count)
board.processor.cores0.core.commitStats0.committedInstType::SimdSha1Hash2            0      0.00%     63.31% # Class of committed instruction. (Count)
board.processor.cores0.core.commitStats0.committedInstType::SimdSha256Hash            0      0.00%     63.31% # Class of committed instruction. (Count)
board.processor.cores0.core.commitStats0.committedInstType::SimdSha256Hash2            0      0.00%     63.31% # Class of committed instruction. (Count)
board.processor.cores0.core.commitStats0.committedInstType::SimdShaSigma2            0      0.00%     63.31% # Class of committed instruction. (Count)
board.processor.cores0.core.commitStats0.committedInstType::SimdShaSigma3            0      0.00%     63.31% # Class of committed instruction. (Count)
board.processor.cores0.core.commitStats0.committedInstType::SimdPredAlu            0      0.00%     63.31% # Class of committed instruction. (Count)
board.processor.cores0.core.commitStats0.committedInstType::Matrix            0      0.00%     63.31% # Class of committed instruction. (Count)
board.processor.cores0.core.commitStats0.committedInstType::MatrixMov            0      0.00%     63.31% # Class of committed instruction. (Count)
board.processor.cores0.core.commitStats0.committedInstType::MatrixOP            0      0.00%     63.31% # Class of committed instruction. (Count)
board.processor.cores0.core.commitStats0.committedInstType::MemRead       237078     23.39%     86.70% # Class of committed instruction. (Count)
board.processor.cores0.core.commitStats0.committedInstType::MemWrite        94703      9.35%     96.05% # Class of committed instruction. (Count)
board.processor.cores0.core.commitStats0.committedInstType::FloatMemRead        20000      1.97%     98.02% # Class of committed instruction. (Count)
board.processor.cores0.core.commitStats0.committedInstType::FloatMemWrite        20031      1.98%    100.00% # Class of committed instruction. (Count)
board.processor.cores0.core.commitStats0.committedInstType::IprAccess            0      0.00%    100.00% # Class of committed instruction. (Count)
board.processor.cores0.core.commitStats0.committedInstType::InstPrefetch            0      0.00%    100.00% # Class of committed instruction. (Count)
board.processor.cores0.core.commitStats0.committedInstType::VectorUnitStrideLoad            0      0.00%    100.00% # Class of committed instruction. (Count)
board.processor.cores0.core.commitStats0.committedInstType::VectorUnitStrideStore            0      0.00%    100.00% # Class of committed instruction. (Count)
board.processor.cores0.core.commitStats0.committedInstType::VectorUnitStrideMaskLoad            0      0.00%    100.00% # Class of committed instruction. (Count)
board.processor.cores0.core.commitStats0.committedInstType::VectorUnitStrideMaskStore            0      0.00%    100.00% # Class of committed instruction. (Count)
board.processor.cores0.core.commitStats0.committedInstType::VectorStridedLoad            0      0.00%    100.00% # Class of committed instruction. (Count)
board.processor.cores0.core.commitStats0.committedInstType::VectorStridedStore            0      0.00%    100.00% # Class of committed instruction. (Count)
board.processor.cores0.core.commitStats0.committedInstType::VectorIndexedLoad            0      0.00%    100.00% # Class of committed instruction. (Count)
board.processor.cores0.core.commitStats0.committedInstType::VectorIndexedStore            0      0.00%    100.00% # Class of committed instruction. (Count)
board.processor.cores0.core.commitStats0.committedInstType::VectorUnitStrideFaultOnlyFirstLoad            0      0.00%    100.00% # Class of committed instruction. (Count)
board.processor.cores0.core.commitStats0.committedInstType::VectorWholeRegisterLoad            0      0.00%    100.00% # Class of committed instruction. (Count)
board.processor.cores0.core.commitStats0.committedInstType::VectorWholeRegisterStore            0      0.00%    100.00% # Class of committed instruction. (Count)
board.processor.cores0.core.commitStats0.committedInstType::VectorIntegerArith            0      0.00%    100.00% # Class of committed instruction. (Count)
board.processor.cores0.core.commitStats0.committedInstType::VectorFloatArith            0      0.00%    100.00% # Class of committed instruction. (Count)
board.processor.cores0.core.commitStats0.committedInstType::VectorFloatConvert            0      0.00%    100.00% # Class of committed instruction. (Count)
board.processor.cores0.core.commitStats0.committedInstType::VectorIntegerReduce            0      0.00%    100.00% # Class of committed instruction. (Count)
board.processor.cores0.core.commitStats0.committedInstType::VectorFloatReduce            0      0.00%    100.00% # Class of committed instruction. (Count)
board.processor.cores0.core.commitStats0.committedInstType::VectorMisc            0      0.00%    100.00% # Class of committed instruction. (Count)
board.processor.cores0.core.commitStats0.committedInstType::VectorIntegerExtension            0      0.00%    100.00% # Class of committed instruction. (Count)
board.processor.cores0.core.commitStats0.committedInstType::VectorConfig            0      0.00%    100.00% # Class of committed instruction. (Count)
board.processor.cores0.core.commitStats0.committedInstType::total      1013371                       # Class of committed instruction. (Count)
board.processor.cores0.core.executeStats0.numInsts            0                       # Number of executed instructions (Count)
board.processor.cores0.core.executeStats0.numNop            0                       # Number of nop insts executed (Count)
board.processor.cores0.core.executeStats0.numBranches            0                       # Number of branches executed (Count)
board.processor.cores0.core.executeStats0.numLoadInsts            0                       # Number of load instructions executed (Count)
board.processor.cores0.core.executeStats0.numStoreInsts            0                       # Number of stores executed (Count)
board.processor.cores0.core.executeStats0.instRate            0                       # Inst execution rate ((Count/Cycle))
board.processor.cores0.core.executeStats0.numFpRegWrites            0                       # Number of times the floating registers were written (Count)
board.processor.cores0.core.executeStats0.numMemRefs            0                       # Number of memory refs (Count)
board.processor.cores0.core.executeStats0.numVecAluAccesses            0                       # Number of vector alu accesses (Count)
board.processor.cores0.core.executeStats0.numDiscardedOps         1425                       # Number of ops (including micro ops) which were discarded before commit (Count)
board.processor.cores0.core.fetch2.intInstructions       612962                       # Number of integer instructions successfully decoded (Count)
board.processor.cores0.core.fetch2.fpInstructions        30009                       # Number of floating point instructions successfully decoded (Count)
board.processor.cores0.core.fetch2.vecInstructions            0                       # Number of SIMD instructions successfully decoded (Count)
board.processor.cores0.core.fetch2.loadInstructions       258536                       # Number of memory load instructions successfully decoded (Count)
board.processor.cores0.core.fetch2.storeInstructions       115326                       # Number of memory store instructions successfully decoded (Count)
board.processor.cores0.core.fetch2.amoInstructions            0                       # Number of memory atomic instructions successfully decoded (Count)
board.processor.cores0.core.fetchStats0.numInsts            0                       # Number of instructions fetched (thread level) (Count)
board.processor.cores0.core.fetchStats0.numOps            0                       # Number of ops (including micro ops) fetched (thread level) (Count)
board.processor.cores0.core.fetchStats0.fetchRate            0                       # Number of inst fetches per cycle ((Count/Cycle))
board.processor.cores0.core.fetchStats0.branchRate            0                       # Number of branch fetches per cycle (Ratio)
board.processor.cores0.core.fetchStats0.numFetchSuspends            0                       # Number of times Execute suspended instruction fetching (Count)
board.processor.cores0.core.mmu.dtb.readHits            0                       # read hits (Count)
board.processor.cores0.core.mmu.dtb.readMisses            0                       # read misses (Count)
board.processor.cores0.core.mmu.dtb.readAccesses            0                       # read accesses (Count)
board.processor.cores0.core.mmu.dtb.writeHits            0                       # write hits (Count)
board.processor.cores0.core.mmu.dtb.writeMisses            0                       # write misses (Count)
board.processor.cores0.core.mmu.dtb.writeAccesses            0                       # write accesses (Count)
board.processor.cores0.core.mmu.dtb.hits            0                       # Total TLB (read and write) hits (Count)
board.processor.cores0.core.mmu.dtb.misses            0                       # Total TLB (read and write) misses (Count)
board.processor.cores0.core.mmu.dtb.accesses            0                       # Total TLB (read and write) accesses (Count)
board.processor.cores0.core.mmu.dtb.walker.power_state.pwrStateResidencyTicks::UNDEFINED   9588976400                       # Cumulative time (in ticks) in various power states (Tick)
board.processor.cores0.core.mmu.itb.readHits            0                       # read hits (Count)
board.processor.cores0.core.mmu.itb.readMisses            0                       # read misses (Count)
board.processor.cores0.core.mmu.itb.readAccesses            0                       # read accesses (Count)
board.processor.cores0.core.mmu.itb.writeHits            0                       # write hits (Count)
board.processor.cores0.core.mmu.itb.writeMisses            0                       # write misses (Count)
board.processor.cores0.core.mmu.itb.writeAccesses            0                       # write accesses (Count)
board.processor.cores0.core.mmu.itb.hits            0                       # Total TLB (read and write) hits (Count)
board.processor.cores0.core.mmu.itb.misses            0                       # Total TLB (read and write) misses (Count)
board.processor.cores0.core.mmu.itb.accesses            0                       # Total TLB (read and write) accesses (Count)
board.processor.cores0.core.mmu.itb.walker.power_state.pwrStateResidencyTicks::UNDEFINED   9588976400                       # Cumulative time (in ticks) in various power states (Tick)
board.processor.cores0.core.power_state.pwrStateResidencyTicks::ON   9588976400                       # Cumulative time (in ticks) in various power states (Tick)
board.processor.cores0.core.thread_0.numInsts      1013365                       # Number of Instructions committed (Count)
board.processor.cores0.core.thread_0.numOps      1013371                       # Number of Ops committed (Count)
board.processor.cores0.core.thread_0.numMemRefs            0                       # Number of Memory References (Count)
board.processor.cores0.core.workload.numSyscalls           13                       # Number of system calls (Count)
board.processor.cores1.core.numCycles               2                       # Number of cpu cycles simulated (Cycle)
board.processor.cores1.core.cpi                   inf                       # CPI: cycles per instruction (core level) ((Cycle/Count))
board.processor.cores1.core.ipc              0.000000                       # IPC: instructions per cycle (core level) ((Count/Cycle))
board.processor.cores1.core.numWorkItemsStarted            0                       # Number of work items this cpu started (Count)
board.processor.cores1.core.numWorkItemsCompleted            0                       # Number of work items this cpu completed (Count)
board.processor.cores1.core.branchPred.lookups            0                       # Number of BP lookups (Count)
board.processor.cores1.core.branchPred.condPredicted            0                       # Number of conditional branches predicted (Count)
board.processor.cores1.core.branchPred.condIncorrect            0                       # Number of conditional branches incorrect (Count)
board.processor.cores1.core.branchPred.BTBLookups            0                       # Number of BTB lookups (Count)
board.processor.cores1.core.branchPred.BTBUpdates            0                       # Number of BTB updates (Count)
board.processor.cores1.core.branchPred.BTBHits            0                       # Number of BTB hits (Count)
board.processor.cores1.core.branchPred.BTBHitRatio          nan                       # BTB Hit Ratio (Ratio)
board.processor.cores1.core.branchPred.RASUsed            0                       # Number of times the RAS was used to get a target. (Count)
board.processor.cores1.core.branchPred.RASIncorrect            0                       # Number of incorrect RAS predictions. (Count)
board.processor.cores1.core.branchPred.indirectLookups            0                       # Number of indirect predictor lookups. (Count)
board.processor.cores1.core.branchPred.indirectHits            0                       # Number of indirect target hits. (Count)
board.processor.cores1.core.branchPred.indirectMisses            0                       # Number of indirect misses. (Count)
board.processor.cores1.core.branchPred.indirectMispredicted            0                       # Number of mispredicted indirect branches. (Count)
board.processor.cores1.core.commitStats0.numOps            0                       # Number of ops (including micro ops) committed (thread level) (Count)
board.processor.cores1.core.commitStats0.numInstsNotNOP            0                       # Number of instructions committed excluding NOPs or prefetches (Count)
board.processor.cores1.core.commitStats0.numOpsNotNOP            0                       # Number of Ops (including micro ops) Simulated (Count)
board.processor.cores1.core.commitStats0.cpi          inf                       # CPI: cycles per instruction (thread level) ((Cycle/Count))
board.processor.cores1.core.commitStats0.ipc     0.000000                       # IPC: instructions per cycle (thread level) ((Count/Cycle))
board.processor.cores1.core.commitStats0.numMemRefs            0                       # Number of memory references committed (Count)
board.processor.cores1.core.commitStats0.numFpInsts            0                       # Number of float instructions (Count)
board.processor.cores1.core.commitStats0.numIntInsts            0                       # Number of integer instructions (Count)
board.processor.cores1.core.commitStats0.numLoadInsts            0                       # Number of load instructions (Count)
board.processor.cores1.core.commitStats0.numStoreInsts            0                       # Number of store instructions (Count)
board.processor.cores1.core.commitStats0.numVecInsts            0                       # Number of vector instructions (Count)
board.processor.cores1.core.commitStats0.committedInstType::No_OpClass            0                       # Class of committed instruction. (Count)
board.processor.cores1.core.commitStats0.committedInstType::IntAlu            0                       # Class of committed instruction. (Count)
board.processor.cores1.core.commitStats0.committedInstType::IntMult            0                       # Class of committed instruction. (Count)
board.processor.cores1.core.commitStats0.committedInstType::IntDiv            0                       # Class of committed instruction. (Count)
board.processor.cores1.core.commitStats0.committedInstType::FloatAdd            0                       # Class of committed instruction. (Count)
board.processor.cores1.core.commitStats0.committedInstType::FloatCmp            0                       # Class of committed instruction. (Count)
board.processor.cores1.core.commitStats0.committedInstType::FloatCvt            0                       # Class of committed instruction. (Count)
board.processor.cores1.core.commitStats0.committedInstType::FloatMult            0                       # Class of committed instruction. (Count)
board.processor.cores1.core.commitStats0.committedInstType::FloatMultAcc            0                       # Class of committed instruction. (Count)
board.processor.cores1.core.commitStats0.committedInstType::FloatDiv            0                       # Class of committed instruction. (Count)
board.processor.cores1.core.commitStats0.committedInstType::FloatMisc            0                       # Class of committed instruction. (Count)
board.processor.cores1.core.commitStats0.committedInstType::FloatSqrt            0                       # Class of committed instruction. (Count)
board.processor.cores1.core.commitStats0.committedInstType::SimdAdd            0                       # Class of committed instruction. (Count)
board.processor.cores1.core.commitStats0.committedInstType::SimdAddAcc            0                       # Class of committed instruction. (Count)
board.processor.cores1.core.commitStats0.committedInstType::SimdAlu            0                       # Class of committed instruction. (Count)
board.processor.cores1.core.commitStats0.committedInstType::SimdCmp            0                       # Class of committed instruction. (Count)
board.processor.cores1.core.commitStats0.committedInstType::SimdCvt            0                       # Class of committed instruction. (Count)
board.processor.cores1.core.commitStats0.committedInstType::SimdMisc            0                       # Class of committed instruction. (Count)
board.processor.cores1.core.commitStats0.committedInstType::SimdMult            0                       # Class of committed instruction. (Count)
board.processor.cores1.core.commitStats0.committedInstType::SimdMultAcc            0                       # Class of committed instruction. (Count)
board.processor.cores1.core.commitStats0.committedInstType::SimdMatMultAcc            0                       # Class of committed instruction. (Count)
board.processor.cores1.core.commitStats0.committedInstType::SimdShift            0                       # Class of committed instruction. (Count)
board.processor.cores1.core.commitStats0.committedInstType::SimdShiftAcc            0                       # Class of committed instruction. (Count)
board.processor.cores1.core.commitStats0.committedInstType::SimdDiv            0                       # Class of committed instruction. (Count)
board.processor.cores1.core.commitStats0.committedInstType::SimdSqrt            0                       # Class of committed instruction. (Count)
board.processor.cores1.core.commitStats0.committedInstType::SimdFloatAdd            0                       # Class of committed instruction. (Count)
board.processor.cores1.core.commitStats0.committedInstType::SimdFloatAlu            0                       # Class of committed instruction. (Count)
board.processor.cores1.core.commitStats0.committedInstType::SimdFloatCmp            0                       # Class of committed instruction. (Count)
board.processor.cores1.core.commitStats0.committedInstType::SimdFloatCvt            0                       # Class of committed instruction. (Count)
board.processor.cores1.core.commitStats0.committedInstType::SimdFloatDiv            0                       # Class of committed instruction. (Count)
board.processor.cores1.core.commitStats0.committedInstType::SimdFloatMisc            0                       # Class of committed instruction. (Count)
board.processor.cores1.core.commitStats0.committedInstType::SimdFloatMult            0                       # Class of committed instruction. (Count)
board.processor.cores1.core.commitStats0.committedInstType::SimdFloatMultAcc            0                       # Class of committed instruction. (Count)
board.processor.cores1.core.commitStats0.committedInstType::SimdFloatMatMultAcc            0                       # Class of committed instruction. (Count)
board.processor.cores1.core.commitStats0.committedInstType::SimdFloatSqrt            0                       # Class of committed instruction. (Count)
board.processor.cores1.core.commitStats0.committedInstType::SimdReduceAdd            0                       # Class of committed instruction. (Count)
board.processor.cores1.core.commitStats0.committedInstType::SimdReduceAlu            0                       # Class of committed instruction. (Count)
board.processor.cores1.core.commitStats0.committedInstType::SimdReduceCmp            0                       # Class of committed instruction. (Count)
board.processor.cores1.core.commitStats0.committedInstType::SimdFloatReduceAdd            0                       # Class of committed instruction. (Count)
board.processor.cores1.core.commitStats0.committedInstType::SimdFloatReduceCmp            0                       # Class of committed instruction. (Count)
board.processor.cores1.core.commitStats0.committedInstType::SimdAes            0                       # Class of committed instruction. (Count)
board.processor.cores1.core.commitStats0.committedInstType::SimdAesMix            0                       # Class of committed instruction. (Count)
board.processor.cores1.core.commitStats0.committedInstType::SimdSha1Hash            0                       # Class of committed instruction. (Count)
board.processor.cores1.core.commitStats0.committedInstType::SimdSha1Hash2            0                       # Class of committed instruction. (Count)
board.processor.cores1.core.commitStats0.committedInstType::SimdSha256Hash            0                       # Class of committed instruction. (Count)
board.processor.cores1.core.commitStats0.committedInstType::SimdSha256Hash2            0                       # Class of committed instruction. (Count)
board.processor.cores1.core.commitStats0.committedInstType::SimdShaSigma2            0                       # Class of committed instruction. (Count)
board.processor.cores1.core.commitStats0.committedInstType::SimdShaSigma3            0                       # Class of committed instruction. (Count)
board.processor.cores1.core.commitStats0.committedInstType::SimdPredAlu            0                       # Class of committed instruction. (Count)
[...]
board.processor.cores1.core.commitStats0.numInstsNotNOP            0                       # Number of instructions committed excluding NOPs or prefetches (Count)
board.processor.cores1.core.commitStats0.numOpsNotNOP            0                       # Number of Ops (including micro ops) Simulated (Count)
board.processor.cores1.core.commitStats0.cpi          nan                       # CPI: cycles per instruction (thread level) ((Cycle/Count))
board.processor.cores1.core.commitStats0.ipc          nan                       # IPC: instructions per cycle (thread level) ((Count/Cycle))
board.processor.cores1.core.commitStats0.numMemRefs            0                       # Number of memory references committed (Count)
board.processor.cores1.core.commitStats0.numFpInsts            0                       # Number of float instructions (Count)
board.processor.cores1.core.commitStats0.numIntInsts            0                       # Number of integer instructions (Count)
board.processor.cores1.core.commitStats0.numLoadInsts            0                       # Number of load instructions (Count)
board.processor.cores1.core.commitStats0.numStoreInsts            0                       # Number of store instructions (Count)
board.processor.cores1.core.commitStats0.numVecInsts            0                       # Number of vector instructions (Count)
board.processor.cores1.core.commitStats0.committedInstType::No_OpClass            0                       # Class of committed instruction. (Count)
board.processor.cores1.core.commitStats0.committedInstType::IntAlu            0                       # Class of committed instruction. (Count)
board.processor.cores1.core.commitStats0.committedInstType::IntMult            0                       # Class of committed instruction. (Count)
board.processor.cores1.core.commitStats0.committedInstType::IntDiv            0                       # Class of committed instruction. (Count)
board.processor.cores1.core.commitStats0.committedInstType::FloatAdd            0                       # Class of committed instruction. (Count)
board.processor.cores1.core.commitStats0.committedInstType::FloatCmp            0                       # Class of committed instruction. (Count)
board.processor.cores1.core.commitStats0.committedInstType::FloatCvt            0                       # Class of committed instruction. (Count)
board.processor.cores1.core.commitStats0.committedInstType::FloatMult            0                       # Class of committed instruction. (Count)
board.processor.cores1.core.commitStats0.committedInstType::FloatMultAcc            0                       # Class of committed instruction. (Count)
board.processor.cores1.core.commitStats0.committedInstType::FloatDiv            0                       # Class of committed instruction. (Count)
board.processor.cores1.core.commitStats0.committedInstType::FloatMisc            0                       # Class of committed instruction. (Count)
board.processor.cores1.core.commitStats0.committedInstType::FloatSqrt            0                       # Class of committed instruction. (Count)
board.processor.cores1.core.commitStats0.committedInstType::SimdAdd            0                       # Class of committed instruction. (Count)
board.processor.cores1.core.commitStats0.committedInstType::SimdAddAcc            0                       # Class of committed instruction. (Count)
board.processor.cores1.core.commitStats0.committedInstType::SimdAlu            0                       # Class of committed instruction. (Count)
board.processor.cores1.core.commitStats0.committedInstType::SimdCmp            0                       # Class of committed instruction. (Count)
board.processor.cores1.core.commitStats0.committedInstType::SimdCvt            0                       # Class of committed instruction. (Count)
board.processor.cores1.core.commitStats0.committedInstType::SimdMisc            0                       # Class of committed instruction. (Count)
board.processor.cores1.core.commitStats0.committedInstType::SimdMult            0                       # Class of committed instruction. (Count)
board.processor.cores1.core.commitStats0.committedInstType::SimdMultAcc            0                       # Class of committed instruction. (Count)
board.processor.cores1.core.commitStats0.committedInstType::SimdMatMultAcc            0                       # Class of committed instruction. (Count)
board.processor.cores1.core.commitStats0.committedInstType::SimdShift            0                       # Class of committed instruction. (Count)
board.processor.cores1.core.commitStats0.committedInstType::SimdShiftAcc            0                       # Class of committed instruction. (Count)
board.processor.cores1.core.commitStats0.committedInstType::SimdDiv            0                       # Class of committed instruction. (Count)
board.processor.cores1.core.commitStats0.committedInstType::SimdSqrt            0                       # Class of committed instruction. (Count)
board.processor.cores1.core.commitStats0.committedInstType::SimdFloatAdd            0                       # Class of committed instruction. (Count)
board.processor.cores1.core.commitStats0.committedInstType::SimdFloatAlu            0                       # Class of committed instruction. (Count)
board.processor.cores1.core.commitStats0.committedInstType::SimdFloatCmp            0                       # Class of committed instruction. (Count)
board.processor.cores1.core.commitStats0.committedInstType::SimdFloatCvt            0                       # Class of committed instruction. (Count)
board.processor.cores1.core.commitStats0.committedInstType::SimdFloatDiv            0                       # Class of committed instruction. (Count)
board.processor.cores1.core.commitStats0.committedInstType::SimdFloatMisc            0                       # Class of committed instruction. (Count)
board.processor.cores1.core.commitStats0.committedInstType::SimdFloatMult            0                       # Class of committed instruction. (Count)
board.processor.cores1.core.commitStats0.committedInstType::SimdFloatMultAcc            0                       # Class of committed instruction. (Count)
board.processor.cores1.core.commitStats0.committedInstType::SimdFloatMatMultAcc            0                       # Class of committed instruction. (Count)
board.processor.cores1.core.commitStats0.committedInstType::SimdFloatSqrt            0                       # Class of committed instruction. (Count)
board.processor.cores1.core.commitStats0.committedInstType::SimdReduceAdd            0                       # Class of committed instruction. (Count)
board.processor.cores1.core.commitStats0.committedInstType::SimdReduceAlu            0                       # Class of committed instruction. (Count)
board.processor.cores1.core.commitStats0.committedInstType::SimdReduceCmp            0                       # Class of committed instruction. (Count)
board.processor.cores1.core.commitStats0.committedInstType::SimdFloatReduceAdd            0                       # Class of committed instruction. (Count)
board.processor.cores1.core.commitStats0.committedInstType::SimdFloatReduceCmp            0                       # Class of committed instruction. (Count)
board.processor.cores1.core.commitStats0.committedInstType::SimdAes            0                       # Class of committed instruction. (Count)
board.processor.cores1.core.commitStats0.committedInstType::SimdAesMix            0                       # Class of committed instruction. (Count)
board.processor.cores1.core.commitStats0.committedInstType::SimdSha1Hash            0                       # Class of committed instruction. (Count)
board.processor.cores1.core.commitStats0.committedInstType::SimdSha1Hash2            0                       # Class of committed instruction. (Count)
board.processor.cores1.core.commitStats0.committedInstType::SimdSha256Hash            0                       # Class of committed instruction. (Count)
board.processor.cores1.core.commitStats0.committedInstType::SimdSha256Hash2            0                       # Class of committed instruction. (Count)
board.processor.cores1.core.commitStats0.committedInstType::SimdShaSigma2            0                       # Class of committed instruction. (Count)
board.processor.cores1.core.commitStats0.committedInstType::SimdShaSigma3            0                       # Class of committed instruction. (Count)
board.processor.cores1.core.commitStats0.committedInstType::SimdPredAlu            0                       # Class of committed instruction. (Count)
board.processor.cores1.core.commitStats0.committedInstType::Matrix            0                       # Class of committed instruction. (Count)
board.processor.cores1.core.commitStats0.committedInstType::MatrixMov            0                       # Class of committed instruction. (Count)
board.processor.cores1.core.commitStats0.committedInstType::MatrixOP            0                       # Class of committed instruction. (Count)
board.processor.cores1.core.commitStats0.committedInstType::MemRead            0                       # Class of committed instruction. (Count)
board.processor.cores1.core.commitStats0.committedInstType::MemWrite            0                       # Class of committed instruction. (Count)
board.processor.cores1.core.commitStats0.committedInstType::FloatMemRead            0                       # Class of committed instruction. (Count)
board.processor.cores1.core.commitStats0.committedInstType::FloatMemWrite            0                       # Class of committed instruction. (Count)
board.processor.cores1.core.commitStats0.committedInstType::IprAccess            0                       # Class of committed instruction. (Count)
board.processor.cores1.core.commitStats0.committedInstType::InstPrefetch            0                       # Class of committed instruction. (Count)
board.processor.cores1.core.commitStats0.committedInstType::VectorUnitStrideLoad            0                       # Class of committed instruction. (Count)
board.processor.cores1.core.commitStats0.committedInstType::VectorUnitStrideStore            0                       # Class of committed instruction. (Count)
board.processor.cores1.core.commitStats0.committedInstType::VectorUnitStrideMaskLoad            0                       # Class of committed instruction. (Count)
board.processor.cores1.core.commitStats0.committedInstType::VectorUnitStrideMaskStore            0                       # Class of committed instruction. (Count)
board.processor.cores1.core.commitStats0.committedInstType::VectorStridedLoad            0                       # Class of committed instruction. (Count)
board.processor.cores1.core.commitStats0.committedInstType::VectorStridedStore            0                       # Class of committed instruction. (Count)
board.processor.cores1.core.commitStats0.committedInstType::VectorIndexedLoad            0                       # Class of committed instruction. (Count)
board.processor.cores1.core.commitStats0.committedInstType::VectorIndexedStore            0                       # Class of committed instruction. (Count)
board.processor.cores1.core.commitStats0.committedInstType::VectorUnitStrideFaultOnlyFirstLoad            0                       # Class of committed instruction. (Count)
board.processor.cores1.core.commitStats0.committedInstType::VectorWholeRegisterLoad            0                       # Class of committed instruction. (Count)
board.processor.cores1.core.commitStats0.committedInstType::VectorWholeRegisterStore            0                       # Class of committed instruction. (Count)
board.processor.cores1.core.commitStats0.committedInstType::VectorIntegerArith            0                       # Class of committed instruction. (Count)
board.processor.cores1.core.commitStats0.committedInstType::VectorFloatArith            0                       # Class of committed instruction. (Count)
board.processor.cores1.core.commitStats0.committedInstType::VectorFloatConvert            0                       # Class of committed instruction. (Count)
board.processor.cores1.core.commitStats0.committedInstType::VectorIntegerReduce            0                       # Class of committed instruction. (Count)
board.processor.cores1.core.commitStats0.committedInstType::VectorFloatReduce            0                       # Class of committed instruction. (Count)
board.processor.cores1.core.commitStats0.committedInstType::VectorMisc            0                       # Class of committed instruction. (Count)
board.processor.cores1.core.commitStats0.committedInstType::VectorIntegerExtension            0                       # Class of committed instruction. (Count)
board.processor.cores1.core.commitStats0.committedInstType::VectorConfig            0                       # Class of committed instruction. (Count)
board.processor.cores1.core.commitStats0.committedInstType::total            0                       # Class of committed instruction. (Count)
board.processor.cores1.core.executeStats0.numInsts            0                       # Number of executed instructions (Count)
board.processor.cores1.core.executeStats0.numNop            0                       # Number of nop insts executed (Count)
board.processor.cores1.core.executeStats0.numBranches            0                       # Number of branches executed (Count)
board.processor.cores1.core.executeStats0.numLoadInsts            0                       # Number of load instructions executed (Count)
board.processor.cores1.core.executeStats0.numStoreInsts            0                       # Number of stores executed (Count)
board.processor.cores1.core.executeStats0.instRate          nan                       # Inst execution rate ((Count/Cycle))
board.processor.cores1.core.executeStats0.numFpRegWrites            0                       # Number of times the floating registers were written (Count)
board.processor.cores1.core.executeStats0.numMemRefs            0                       # Number of memory refs (Count)
board.processor.cores1.core.executeStats0.numVecAluAccesses            0                       # Number of vector alu accesses (Count)
board.processor.cores1.core.executeStats0.numDiscardedOps            0                       # Number of ops (including micro ops) which were discarded before commit (Count)
board.processor.cores1.core.fetch2.intInstructions            0                       # Number of integer instructions successfully decoded (Count)
board.processor.cores1.core.fetch2.fpInstructions            0                       # Number of floating point instructions successfully decoded (Count)
board.processor.cores1.core.fetch2.vecInstructions            0                       # Number of SIMD instructions successfully decoded (Count)
board.processor.cores1.core.fetch2.loadInstructions            0                       # Number of memory load instructions successfully decoded (Count)
board.processor.cores1.core.fetch2.storeInstructions            0                       # Number of memory store instructions successfully decoded (Count)
board.processor.cores1.core.fetch2.amoInstructions            0                       # Number of memory atomic instructions successfully decoded (Count)
board.processor.cores1.core.fetchStats0.numInsts            0                       # Number of instructions fetched (thread level) (Count)
board.processor.cores1.core.fetchStats0.numOps            0                       # Number of ops (including micro ops) fetched (thread level) (Count)
board.processor.cores1.core.fetchStats0.fetchRate          nan                       # Number of inst fetches per cycle ((Count/Cycle))
board.processor.cores1.core.fetchStats0.branchRate          nan                       # Number of branch fetches per cycle (Ratio)
board.processor.cores1.core.fetchStats0.numFetchSuspends            0                       # Number of times Execute suspended instruction fetching (Count)
board.processor.cores1.core.mmu.dtb.readHits            0                       # read hits (Count)
board.processor.cores1.core.mmu.dtb.readMisses            0                       # read misses (Count)
board.processor.cores1.core.mmu.dtb.readAccesses            0                       # read accesses (Count)
board.processor.cores1.core.mmu.dtb.writeHits            0                       # write hits (Count)
board.processor.cores1.core.mmu.dtb.writeMisses            0                       # write misses (Count)
board.processor.cores1.core.mmu.dtb.writeAccesses            0                       # write accesses (Count)
board.processor.cores1.core.mmu.dtb.hits            0                       # Total TLB (read and write) hits (Count)
board.processor.cores1.core.mmu.dtb.misses            0                       # Total TLB (read and write) misses (Count)
board.processor.cores1.core.mmu.dtb.accesses            0                       # Total TLB (read and write) accesses (Count)
board.processor.cores1.core.mmu.dtb.walker.power_state.pwrStateResidencyTicks::UNDEFINED   1531680600                       # Cumulative time (in ticks) in various power states (Tick)
board.processor.cores1.core.mmu.itb.readHits            0                       # read hits (Count)
board.processor.cores1.core.mmu.itb.readMisses            0                       # read misses (Count)
board.processor.cores1.core.mmu.itb.readAccesses            0                       # read accesses (Count)
board.processor.cores1.core.mmu.itb.writeHits            0                       # write hits (Count)
board.processor.cores1.core.mmu.itb.writeMisses            0                       # write misses (Count)
board.processor.cores1.core.mmu.itb.writeAccesses            0                       # write accesses (Count)
board.processor.cores1.core.mmu.itb.hits            0                       # Total TLB (read and write) hits (Count)
board.processor.cores1.core.mmu.itb.misses            0                       # Total TLB (read and write) misses (Count)
board.processor.cores1.core.mmu.itb.accesses            0                       # Total TLB (read and write) accesses (Count)
board.processor.cores1.core.mmu.itb.walker.power_state.pwrStateResidencyTicks::UNDEFINED   1531680600                       # Cumulative time (in ticks) in various power states (Tick)
board.processor.cores1.core.power_state.pwrStateResidencyTicks::ON   1531680600                       # Cumulative time (in ticks) in various power states (Tick)
board.processor.cores1.core.thread_0.numInsts            0                       # Number of Instructions committed (Count)
board.processor.cores1.core.thread_0.numOps            0                       # Number of Ops committed (Count)
board.processor.cores1.core.thread_0.numMemRefs            0                       # Number of Memory References (Count)
board.workload.inst.arm                             0                       # number of arm instructions executed (Count)
board.workload.inst.quiesce                         0                       # number of quiesce instructions executed (Count)
board.processor.cores0.core.idleCycles        7390178                       # Total number of cycles that the object has spent stopped (Unspecified)
board.processor.cores0.core.tickCycles         268225                       # Number of cycles that the object actually ticked (Unspecified)
board.processor.cores1.core.idleCycles              0                       # Total number of cycles that the object has spent stopped (Unspecified)
board.processor.cores1.core.tickCycles              0                       # Number of cycles that the object actually ticked (Unspecified)

---------- End Simulation Statistics   ----------
